data_D1-PPh3AuI-1_11880
_audit_creation_date               2025-01-23
_audit_creation_method
;
Olex2 1.5-alpha
(compiled 2025.01.10 svn.r16582094 for OlexSys, GUI svn.r7115)
;
_audit_contact_author_address      ?
_audit_contact_author_email        ?
_audit_contact_author_name         ''
_audit_contact_author_phone        ?
_publ_contact_author_id_orcid      ?
_publ_section_references
;
Bourhis, L.J., Dolomanov, O.V., Gildea, R.J., Howard, J.A.K., Puschmann, H.
 (2015). Acta Cryst. A71, 59-75.

Dolomanov, O.V., Bourhis, L.J., Gildea, R.J, Howard, J.A.K. & Puschmann, H.
 (2009), J. Appl. Cryst. 42, 339-341.

Meurer, F., Dolomanov, O.V., Hennig, C., Peyerimhoff, N., Kleemiss, F.,
Puschmann, H., Bodensteiner, M. (2022), IUCrJ, 9, 604-609.
;
_chemical_formula_moiety           '0.571(C18 H15 Au Br P)'
_chemical_formula_sum              'C10.286 H8.571 Au0.571 Br0.571 P0.571'
_chemical_formula_weight           532.684
_chemical_absolute_configuration   unk
loop_
  _atom_type_symbol
  _atom_type_scat_dispersion_real
  _atom_type_scat_dispersion_imag
  _atom_type_scat_Cromer_Mann_a1
  _atom_type_scat_Cromer_Mann_a2
  _atom_type_scat_Cromer_Mann_a3
  _atom_type_scat_Cromer_Mann_a4
  _atom_type_scat_Cromer_Mann_b1
  _atom_type_scat_Cromer_Mann_b2
  _atom_type_scat_Cromer_Mann_b3
  _atom_type_scat_Cromer_Mann_b4
  _atom_type_scat_Cromer_Mann_c
  _atom_type_scat_source
  _atom_type_scat_dispersion_source
 Au -13.83(13) 4.08(6) 16.88190 18.59130 25.55820 5.86000 0.46110 8.62160 1.48260
 36.39560 12.06580 'International Tables Volume C Table 6.1.1.4 (pp. 500-502)'
 refined
 Br -1.78404 0.63683 17.17890 5.23580 5.63770 3.98510 2.17230 16.57960 0.26090
 41.43280 2.95570 'International Tables Volume C Table 6.1.1.4 (pp. 500-502)'
 'Brennan, Cowan, Rev. Sci. Instrum., 1992, 63, 850'
 C 0.00815 0.00384 2.31000 1.02000 1.58860 0.86500 20.84390 10.20750 0.56870
 51.65120 0.21560 'International Tables Volume C Table 6.1.1.4 (pp. 500-502)'
 'Brennan, Cowan, Rev. Sci. Instrum., 1992, 63, 850'
 H 0.00000 0.00000 0.49300 0.32291 0.14019 0.04081 10.51090 26.12570 3.14236
 57.79970 0.00304 'International Tables Volume C Table 6.1.1.4 (pp. 500-502)'
 'Brennan, Cowan, Rev. Sci. Instrum., 1992, 63, 850'
 P 0.18456 0.20489 6.43450 4.17910 1.78000 1.49080 1.90670 27.15700 0.52600
 68.16450 1.11490 'International Tables Volume C Table 6.1.1.4 (pp. 500-502)'
 'Brennan, Cowan, Rev. Sci. Instrum., 1992, 63, 850'

_space_group_crystal_system        'orthorhombic'
_space_group_IT_number             19
_space_group_name_H-M_alt          'P 21 21 21'
_space_group_name_Hall             ' P 2ac 2ab'
loop_
  _space_group_symop_id
  _space_group_symop_operation_xyz
 1 x,y,z
 2 x+1/2,-y+1/2,-z
 3 -x,y+1/2,-z+1/2
 4 -x+1/2,-y,z+1/2

_symmetry_Int_Tables_number        19
_cell_length_a                     10.0689(3)
_cell_length_b                     12.4672(6)
_cell_length_c                     13.4304(4)
_cell_angle_alpha                  90
_cell_angle_beta                   90
_cell_angle_gamma                  90
_cell_volume                       1685.93(11)
_cell_formula_units_Z              7
_exptl_absorpt_coefficient_mu      12.667
_exptl_crystal_density_diffrn      3.673
_exptl_crystal_F_000               1614.983
_diffrn_reflns_av_R_equivalents    0.0568
_diffrn_reflns_av_unetI/netI       0.0236
_diffrn_reflns_Laue_measured_fraction_full  0.9341
_diffrn_reflns_Laue_measured_fraction_max  0.9146
_diffrn_reflns_limit_h_max         12
_diffrn_reflns_limit_h_min         -12
_diffrn_reflns_limit_k_max         13
_diffrn_reflns_limit_k_min         -13
_diffrn_reflns_limit_l_max         16
_diffrn_reflns_limit_l_min         -16
_diffrn_reflns_number              18360
_diffrn_reflns_point_group_measured_fraction_full  0.9265
_diffrn_reflns_point_group_measured_fraction_max  0.9018
_diffrn_reflns_theta_full          38.7718
_diffrn_reflns_theta_max           41.43
_diffrn_reflns_theta_min           3.27
_diffrn_measured_fraction_theta_full  0.9341
_diffrn_measured_fraction_theta_max  0.9146
_diffrn_radiation_type             synchrotron
_diffrn_radiation_wavelength       1.04370
_reflns_Friedel_coverage           0.885
_reflns_limit_h_max                12
_reflns_limit_h_min                -12
_reflns_limit_k_max                13
_reflns_limit_k_min                -13
_reflns_limit_l_max                16
_reflns_limit_l_min                -16
_reflns_number_gt                  3216
_reflns_number_total               3250
_reflns_threshold_expression       I>=2u(I)
_computing_molecular_graphics      'Olex2 1.5-alpha (Dolomanov et al., 2009)'
_computing_publication_material    'Olex2 1.5-alpha (Dolomanov et al., 2009)'
_computing_structure_refinement   
 'olex2.refine 1.5-alpha (Bourhis et al., 2015)'
_refine_diff_density_max           0.4458
_refine_diff_density_min           -0.5539
_refine_diff_density_rms           0.0726
_refine_ls_abs_structure_details  
 'Hooft, R.W.W., Straver, L.H., Spek, A.L. (2010). J. Appl. Cryst., 43, 665-668.'
_refine_ls_abs_structure_Flack     0.013(5)
_refine_ls_d_res_high              0.7887
_refine_ls_d_res_low               9.1372
_refine_ls_extinction_coef         0.00149(14)
_refine_ls_extinction_expression   Fc^*^=kFc[1+0.001xFc^2^\l^3^/sin(2\q)]^-1/4^
_refine_ls_goodness_of_fit_ref     1.0330
_refine_ls_hydrogen_treatment      constr
_refine_ls_matrix_type             full
_refine_ls_number_constraints      30
_refine_ls_number_parameters       193
_refine_ls_number_reflns           3250
_refine_ls_number_restraints       0
_refine_ls_R_factor_all            0.0240
_refine_ls_R_factor_gt             0.0237
_refine_ls_restrained_S_all        1.0330
_refine_ls_shift/su_max            -0.0034
_refine_ls_shift/su_mean           0.0005
_refine_ls_structure_factor_coef   Fsqd
_refine_ls_weighting_details      
 'w=1/[\s^2^(Fo^2^)+(0.0464P)^2^+0.3444P] where P=(Fo^2^+2Fc^2^)/3'
_refine_ls_weighting_scheme        calc
_refine_ls_wR_factor_gt            0.0645
_refine_ls_wR_factor_ref           0.0660
_olex2_refinement_description
;
1. Fixed Uiso
 At 1.2 times of:
  All C(H) groups
2.a Aromatic/amide H refined with riding coordinates:
 C005(H005), C007(H007), C009(H009), C00A(H00A), C00B(H00B), C00C(H00C),
 C00D(H00D), C00E(H00E), C00F(H00F), C00G(H00G), C00H(H00H), C00I(H00I),
 C00J(H00J), C00K(H00K), C00L(H00L)
;
loop_
  _atom_site_label
  _atom_site_type_symbol
  _atom_site_fract_x
  _atom_site_fract_y
  _atom_site_fract_z
  _atom_site_U_iso_or_equiv
  _atom_site_adp_type
  _atom_site_occupancy
  _atom_site_refinement_flags_posn
 Au01 Au 0.335252(18) 0.428361(18) 0.761159(15) 0.05059(14) Uani 1.000000 .
 Br02 Br 0.11402(5) 0.48513(5) 0.80092(4) 0.06565(19) Uani 1.000000 .
 P003 P 0.54078(9) 0.37447(9) 0.72329(7) 0.0484(2) Uani 1.000000 .
 C004 C 0.5437(4) 0.2931(3) 0.6121(3) 0.0494(8) Uani 1.000000 .
 C005 C 0.5419(5) 0.2279(4) 0.8774(4) 0.0626(11) Uani 1.000000 .
 H005 H 0.4499(5) 0.2285(4) 0.8710(4) 0.0752(13) Uiso 1.000000 R
 C006 C 0.6188(4) 0.2931(3) 0.8178(3) 0.0517(8) Uani 1.000000 .
 C007 C 0.6138(5) 0.1985(4) 0.6067(3) 0.0640(11) Uani 1.000000 .
 H007 H 0.6648(5) 0.1763(4) 0.6606(3) 0.0768(13) Uiso 1.000000 R
 C008 C 0.6540(4) 0.4849(3) 0.7041(3) 0.0540(9) Uani 1.000000 .
 C009 C 0.7253(5) 0.5013(4) 0.6181(4) 0.0660(12) Uani 1.000000 .
 H009 H 0.7170(5) 0.4536(4) 0.5652(4) 0.0792(14) Uiso 1.000000 R
 C00A C 0.7558(5) 0.2943(5) 0.8307(4) 0.0671(12) Uani 1.000000 .
 H00A H 0.8087(5) 0.3398(5) 0.7927(4) 0.0806(14) Uiso 1.000000 R
 C00B C 0.6022(7) 0.1611(4) 0.9472(4) 0.0744(14) Uani 1.000000 .
 H00B H 0.5502(7) 0.1157(4) 0.9860(4) 0.0893(17) Uiso 1.000000 R
 C00C C 0.6701(5) 0.5580(4) 0.7829(4) 0.0659(11) Uani 1.000000 .
 H00C H 0.6216(5) 0.5488(4) 0.8412(4) 0.0790(13) Uiso 1.000000 R
 C00D C 0.4692(6) 0.3251(4) 0.5301(4) 0.0717(13) Uani 1.000000 .
 H00D H 0.4213(6) 0.3889(4) 0.5327(4) 0.0860(15) Uiso 1.000000 R
 C00E C 0.5342(6) 0.1683(5) 0.4410(4) 0.0719(13) Uani 1.000000 .
 H00E H 0.5302(6) 0.1257(5) 0.3842(4) 0.0863(15) Uiso 1.000000 R
 C00F C 0.7561(5) 0.6425(5) 0.7750(5) 0.0759(14) Uani 1.000000 .
 H00F H 0.7676(5) 0.6894(5) 0.8282(5) 0.0911(17) Uiso 1.000000 R
 C00G C 0.8126(6) 0.2268(6) 0.9009(4) 0.0818(17) Uani 1.000000 .
 H00G H 0.9045(6) 0.2260(6) 0.9085(4) 0.098(2) Uiso 1.000000 R
 C00H C 0.4660(6) 0.2634(5) 0.4454(4) 0.0803(15) Uani 1.000000 .
 H00H H 0.4171(6) 0.2863(5) 0.3906(4) 0.0964(18) Uiso 1.000000 R
 C00I C 0.8101(6) 0.5897(5) 0.6100(5) 0.0827(16) Uani 1.000000 .
 H00I H 0.8563(6) 0.6020(5) 0.5512(5) 0.099(2) Uiso 1.000000 R
 C00J C 0.8249(6) 0.6577(4) 0.6886(6) 0.0839(16) Uani 1.000000 .
 H00J H 0.8828(6) 0.7154(4) 0.6832(6) 0.1007(19) Uiso 1.000000 R
 C00K C 0.6087(7) 0.1367(5) 0.5220(4) 0.0778(15) Uani 1.000000 .
 H00K H 0.6562(7) 0.0728(5) 0.5193(4) 0.0934(17) Uiso 1.000000 R
 C00L C 0.7363(6) 0.1616(5) 0.9591(4) 0.0770(16) Uani 1.000000 .
 H00L H 0.7758(6) 0.1178(5) 1.0066(4) 0.0924(19) Uiso 1.000000 R

loop_
  _atom_site_dispersion_label
  _atom_site_dispersion_real
  _atom_site_dispersion_imag
 Au01 -13.83(13) 4.08(6)

loop_
  _atom_site_aniso_label
  _atom_site_aniso_U_11
  _atom_site_aniso_U_22
  _atom_site_aniso_U_33
  _atom_site_aniso_U_12
  _atom_site_aniso_U_13
  _atom_site_aniso_U_23
 Au01 0.04584(16) 0.04982(19) 0.05610(16) 0.00427(7) 0.00026(7) -0.00339(8)
 Br02 0.0527(3) 0.0734(4) 0.0708(3) 0.0135(2) 0.0018(2) -0.0098(2)
 P003 0.0452(4) 0.0463(6) 0.0537(5) 0.0031(4) 0.0005(4) 0.0015(4)
 C004 0.0511(18) 0.043(2) 0.0543(19) 0.0006(16) 0.0016(15) 0.0011(16)
 C005 0.063(2) 0.057(3) 0.068(2) -0.005(2) -0.010(2) 0.009(2)
 C006 0.0546(19) 0.048(2) 0.0528(19) 0.0057(16) -0.0008(15) 0.0022(16)
 C007 0.067(2) 0.062(3) 0.062(2) 0.012(2) 0.001(2) 0.003(2)
 C008 0.0491(18) 0.045(2) 0.068(2) 0.0035(16) -0.0002(17) 0.0055(17)
 C009 0.059(2) 0.057(3) 0.082(3) -0.004(2) 0.014(2) -0.001(2)
 C00A 0.062(2) 0.077(3) 0.063(2) 0.012(2) -0.0028(19) 0.010(2)
 C00B 0.101(4) 0.057(3) 0.066(3) -0.008(3) -0.005(3) 0.015(2)
 C00C 0.062(2) 0.061(3) 0.074(3) 0.002(2) 0.001(2) -0.005(2)
 C00D 0.083(3) 0.064(3) 0.068(3) 0.020(2) -0.016(2) -0.003(2)
 C00E 0.075(3) 0.076(4) 0.065(2) -0.004(3) 0.005(2) -0.015(2)
 C00F 0.064(3) 0.062(3) 0.102(4) -0.002(2) -0.012(3) -0.015(3)
 C00G 0.067(3) 0.107(5) 0.071(3) 0.029(3) -0.009(2) 0.004(3)
 C00H 0.085(3) 0.093(4) 0.062(3) 0.015(3) -0.015(2) -0.004(3)
 C00I 0.063(3) 0.072(4) 0.113(4) -0.006(3) 0.021(3) 0.014(3)
 C00J 0.060(3) 0.057(3) 0.135(5) -0.002(2) 0.003(3) 0.007(3)
 C00K 0.095(4) 0.060(4) 0.079(3) 0.018(3) 0.010(3) -0.007(2)
 C00L 0.107(4) 0.065(4) 0.059(2) 0.023(3) -0.011(3) 0.008(2)

loop_
  _geom_bond_atom_site_label_1
  _geom_bond_atom_site_label_2
  _geom_bond_distance
  _geom_bond_site_symmetry_2
  _geom_bond_publ_flag
 Au01 Br02 2.3975(5) . ?
 Au01 P003 2.2344(9) . ?
 P003 C004 1.805(4) . ?
 P003 C006 1.805(4) . ?
 P003 C008 1.806(4) . ?
 C004 C007 1.377(6) . ?
 C004 C00D 1.390(6) . ?
 C005 H005 0.9300 . ?
 C005 C006 1.379(6) . ?
 C005 C00B 1.393(7) . ?
 C006 C00A 1.390(6) . ?
 C007 H007 0.9300 . ?
 C007 C00K 1.375(7) . ?
 C008 C009 1.375(6) . ?
 C008 C00C 1.406(7) . ?
 C009 H009 0.9300 . ?
 C009 C00I 1.398(7) . ?
 C00A H00A 0.9300 . ?
 C00A C00G 1.387(7) . ?
 C00B H00B 0.9300 . ?
 C00B C00L 1.360(8) . ?
 C00C H00C 0.9300 . ?
 C00C C00F 1.368(7) . ?
 C00D H00D 0.9300 . ?
 C00D C00H 1.375(7) . ?
 C00E H00E 0.9300 . ?
 C00E C00H 1.372(8) . ?
 C00E C00K 1.379(9) . ?
 C00F H00F 0.9300 . ?
 C00F C00J 1.364(9) . ?
 C00G H00G 0.9300 . ?
 C00G C00L 1.364(9) . ?
 C00H H00H 0.9300 . ?
 C00I H00I 0.9300 . ?
 C00I C00J 1.361(9) . ?
 C00J H00J 0.9300 . ?
 C00K H00K 0.9300 . ?
 C00L H00L 0.9300 . ?

loop_
  _geom_angle_atom_site_label_1
  _geom_angle_atom_site_label_2
  _geom_angle_atom_site_label_3
  _geom_angle
  _geom_angle_site_symmetry_1
  _geom_angle_site_symmetry_3
  _geom_angle_publ_flag
 P003 Au01 Br02 179.55(3) . . ?
 C004 P003 Au01 111.84(13) . . ?
 C006 P003 Au01 114.34(14) . . ?
 C006 P003 C004 105.00(19) . . ?
 C008 P003 Au01 112.83(14) . . ?
 C008 P003 C004 107.5(2) . . ?
 C008 P003 C006 104.7(2) . . ?
 C007 C004 P003 122.2(3) . . ?
 C00D C004 P003 119.0(3) . . ?
 C00D C004 C007 118.7(4) . . ?
 C006 C005 H005 120.1(3) . . ?
 C00B C005 H005 120.1(3) . . ?
 C00B C005 C006 119.9(5) . . ?
 C005 C006 P003 119.7(3) . . ?
 C00A C006 P003 120.9(4) . . ?
 C00A C006 C005 119.4(4) . . ?
 H007 C007 C004 119.8(3) . . ?
 C00K C007 C004 120.3(5) . . ?
 C00K C007 H007 119.8(3) . . ?
 C009 C008 P003 124.2(4) . . ?
 C00C C008 P003 117.3(3) . . ?
 C00C C008 C009 118.4(4) . . ?
 H009 C009 C008 120.0(3) . . ?
 C00I C009 C008 120.1(5) . . ?
 C00I C009 H009 120.0(4) . . ?
 H00A C00A C006 120.4(3) . . ?
 C00G C00A C006 119.2(5) . . ?
 C00G C00A H00A 120.4(3) . . ?
 H00B C00B C005 119.7(3) . . ?
 C00L C00B C005 120.6(5) . . ?
 C00L C00B H00B 119.7(3) . . ?
 H00C C00C C008 119.6(3) . . ?
 C00F C00C C008 120.9(5) . . ?
 C00F C00C H00C 119.6(3) . . ?
 H00D C00D C004 119.7(3) . . ?
 C00H C00D C004 120.5(5) . . ?
 C00H C00D H00D 119.7(3) . . ?
 C00H C00E H00E 120.5(3) . . ?
 C00K C00E H00E 120.5(3) . . ?
 C00K C00E C00H 119.1(5) . . ?
 H00F C00F C00C 120.2(3) . . ?
 C00J C00F C00C 119.6(5) . . ?
 C00J C00F H00F 120.2(3) . . ?
 H00G C00G C00A 119.4(3) . . ?
 C00L C00G C00A 121.2(5) . . ?
 C00L C00G H00G 119.4(3) . . ?
 C00E C00H C00D 120.5(5) . . ?
 H00H C00H C00D 119.8(3) . . ?
 H00H C00H C00E 119.8(3) . . ?
 H00I C00I C009 120.1(4) . . ?
 C00J C00I C009 119.8(5) . . ?
 C00J C00I H00I 120.1(3) . . ?
 C00I C00J C00F 121.2(5) . . ?
 H00J C00J C00F 119.4(3) . . ?
 H00J C00J C00I 119.4(3) . . ?
 C00E C00K C007 120.8(5) . . ?
 H00K C00K C007 119.6(3) . . ?
 H00K C00K C00E 119.6(3) . . ?
 C00G C00L C00B 119.7(5) . . ?
 H00L C00L C00B 120.2(3) . . ?
 H00L C00L C00G 120.2(3) . . ?

loop_
  _geom_torsion_atom_site_label_1
  _geom_torsion_atom_site_label_2
  _geom_torsion_atom_site_label_3
  _geom_torsion_atom_site_label_4
  _geom_torsion
  _geom_torsion_site_symmetry_1
  _geom_torsion_site_symmetry_2
  _geom_torsion_site_symmetry_3
  _geom_torsion_site_symmetry_4
  _geom_torsion_publ_flag
 P003 C004 C007 C00K 177.2(5) . . . . ?
 P003 C004 C00D C00H -178.0(5) . . . . ?
 P003 C006 C005 C00B 176.9(4) . . . . ?
 P003 C006 C00A C00G -177.0(4) . . . . ?
 P003 C008 C009 C00I 179.6(4) . . . . ?
 P003 C008 C00C C00F 178.6(4) . . . . ?
 C004 C007 C00K C00E 0.3(6) . . . . ?
 C004 C00D C00H C00E 1.2(7) . . . . ?
 C005 C006 C00A C00G 2.3(5) . . . . ?
 C005 C00B C00L C00G -1.1(7) . . . . ?
 C006 C00A C00G C00L -1.7(6) . . . . ?
 C007 C00K C00E C00H 0.9(8) . . . . ?
 C008 C009 C00I C00J 1.9(6) . . . . ?
 C008 C00C C00F C00J 1.6(6) . . . . ?
 C009 C00I C00J C00F -1.3(7) . . . . ?
 C00A C00G C00L C00B 1.1(7) . . . . ?
 C00C C00F C00J C00I -0.4(6) . . . . ?
 C00D C00H C00E C00K -1.6(8) . . . . ?

loop_
  _diffrn_refln_index_h
  _diffrn_refln_index_k
  _diffrn_refln_index_l
  _diffrn_refln_intensity_net
  _diffrn_refln_intensity_u
  _diffrn_refln_scale_group_code
 0 0 1 26.8628 12.1809 1
 0 0 -1 19.8082 10.0213 6
 0 0 1 7.96659 9.30978 8
 0 0 1 6.671 8.7779 7
 0 0 2 602027 1530.43 8
 0 0 2 635665 1587.27 7
 0 0 -2 711959 1654.41 5
 0 0 2 676384 1642.28 1
 0 0 -2 716502 1718.73 3
 0 0 -2 607599 1494.88 6
 0 0 -3 9.13858 30.3055 3
 0 0 -3 10.3083 23.7708 6
 0 0 3 27.9185 24.2454 8
 0 0 3 5.37851 29.0828 1
 0 0 3 14.168 24.6494 7
 0 0 -3 24.5047 29.2946 5
 0 0 -4 408826 1500 3
 0 0 -4 405727 1362.39 6
 0 0 4 408121 1424.89 8
 0 0 -5 31.7533 34.4022 3
 0 0 -5 -4.21094 25.5315 6
 0 0 -5 84.3379 37.0697 5
 0 0 5 26.9877 29.8129 7
 0 0 5 10.3569 26.2437 8
 0 0 -6 184654 1164.34 5
 0 0 6 185433 1119.01 7
 0 0 -7 53.89 36.4538 6
 0 0 -7 -2.90202 36.2846 3
 0 0 7 49.7465 42.6655 1
 0 0 7 35.177 33.1532 7
 0 0 -7 6.18804 34.8298 5
 0 0 7 16.9313 28.7695 8
 0 0 8 24817.5 462.86 7
 0 0 8 25375.6 480.082 1
 0 0 9 7.70486 29.9403 7
 0 0 -9 19.7911 38.7665 3
 0 0 9 6.02379 39.333 1
 0 0 9 16.7498 30.7188 8
 0 0 -9 -5.75553 38.7239 5
 0 0 -10 4368 215.623 3
 0 0 -10 4520.45 208.175 6
 0 0 10 4373.62 200.143 8
 0 0 10 4455.12 224.963 7
 0 0 -11 34.2074 43.8999 3
 0 0 11 -2.37832 40.76 1
 0 0 -11 68.6921 49.8371 5
 0 0 -11 11.9882 36.901 6
 0 0 12 122.077 57.8978 1
 0 0 12 168.558 50.1147 8
 0 0 12 325.993 72.1362 7
 0 0 -12 267.311 67.5612 3
 0 0 -12 111.415 50.8394 5
 0 0 -12 141.35 53.5502 6
 0 0 13 57.3732 50.4571 1
 0 0 13 79.115 38.3777 8
 0 0 -13 44.1658 43.5227 5
 0 0 14 4495.68 232.748 8
 0 0 -14 4111.47 232.824 3
 0 0 15 -5.94859 42.9414 1
 0 -1 0 18.6869 10.3779 2
 0 -1 1 79.1307 20.5232 1
 0 -1 -1 64.2807 20.2325 3
 0 1 -1 78.1391 12.2929 5
 0 -1 -1 35.6998 15.306 2
 0 1 1 20.7345 10.119 7
 0 -1 1 50.4873 17.6088 7
 0 -1 1 72.8558 17.7203 4
 0 -1 -1 92.6424 18.6814 5
 0 -1 2 8674.87 156.282 7
 0 1 2 7978.63 121.125 7
 0 1 2 9028.6 89.9547 1
 0 1 -2 7332.69 116.18 3
 0 -1 -2 7470.12 146.678 5
 0 1 -2 6997.8 112.192 5
 0 -1 -2 6960.49 95.5702 6
 0 -1 2 8356.02 104.899 8
 0 -1 3 48966.1 349.011 8
 0 1 3 48565.9 407.758 8
 0 -1 -3 53871.1 466.832 2
 0 -1 3 46112.7 407.217 4
 0 1 -3 53693.5 419.608 3
 0 -1 -3 46350 425.766 3
 0 1 -3 40308.9 338.829 5
 0 -1 -3 45326.9 416.982 5
 0 -1 3 48645.7 450.76 7
 0 1 3 48258.1 373.125 7
 0 -1 3 49186.6 447.632 1
 0 1 -3 45897.2 385.221 6
 0 -1 -3 56447.7 354.109 6
 0 1 -4 212961 965.106 6
 0 -1 -4 186706 835.238 6
 0 -1 -4 231057 1105.35 3
 0 1 -4 209338 996.311 3
 0 1 -4 199455 957.044 5
 0 -1 -4 226757 1103.6 5
 0 1 4 214575 971.93 7
 0 -1 4 214242 1081.99 7
 0 1 4 204353 957.126 1
 0 1 4 206538 1034.97 8
 0 -1 4 221442 1105.69 1
 0 1 -5 5157.08 163.044 3
 0 -1 -5 5410.86 180.359 3
 0 -1 -5 5250.16 183.288 5
 0 -1 5 5462.72 153.272 8
 0 1 5 5348.38 168.597 8
 0 1 -5 5328.86 164.471 6
 0 -1 -5 5904.63 155.234 6
 0 -1 5 5028.89 176.813 1
 0 1 5 5481.55 169.995 1
 0 -1 5 5449.18 180.284 7
 0 -1 6 115202 918.204 7
 0 1 6 128148 894.171 7
 0 1 -6 107749 831.169 3
 0 -1 -6 110309 896.883 3
 0 1 6 106757 831.058 8
 0 1 -6 109697 846.371 5
 0 1 -6 113820 805.249 6
 0 -1 -6 110328 908.07 5
 0 1 6 95782.3 816.23 1
 0 -1 6 108924 910.43 1
 0 -1 -6 121908 803.358 6
 0 1 7 505.495 65.1926 7
 0 -1 -7 632.353 79.4055 3
 0 1 -7 458.408 64.0401 3
 0 -1 7 590.044 64.498 8
 0 1 7 566.928 67.898 8
 0 1 -7 602.353 73.4857 5
 0 1 -7 449.903 62.7433 6
 0 -1 -7 559.579 66.9761 6
 0 1 7 527.623 70.3944 1
 0 -1 7 755.515 88.7296 1
 0 -1 -8 49047.1 601.55 6
 0 1 -8 41275.2 551.894 6
 0 -1 -8 39685.8 611.123 5
 0 -1 -8 44232.3 623.801 3
 0 1 -8 51817.9 650.618 3
 0 1 8 40278.2 590.332 1
 0 -1 8 43180.6 642.511 1
 0 -1 8 43203.4 560.318 8
 0 1 8 36584.5 548.42 7
 0 -1 8 44077.3 645.296 7
 0 1 -9 106.879 44.4127 6
 0 -1 -9 59.1624 38.1914 6
 0 -1 -9 252.494 61.7548 3
 0 1 -9 140.553 53.5175 3
 0 -1 9 85.7286 50.0613 1
 0 1 9 77.7517 44.4553 1
 0 -1 9 72.1961 37.5766 8
 0 1 9 80.477 38.9096 8
 0 1 -9 97.8609 46.1304 5
 0 -1 -9 92.155 50.0333 5
 0 -1 9 49.8749 34.4653 7
 0 1 9 76.4412 40.5811 7
 0 1 10 9346.86 326.525 1
 0 1 -10 9247.3 298.007 6
 0 -1 -10 9166.78 296.154 6
 0 1 -10 9492.27 305.544 3
 0 -1 -10 9515.55 315.861 3
 0 -1 10 8995.98 281.76 8
 0 1 10 9359.76 298.157 8
 0 -1 10 9087.45 321.379 7
 0 -1 -10 9737.15 331.95 5
 0 1 -11 117.177 49.9432 6
 0 -1 -11 118.808 53.851 3
 0 -1 11 71.6848 49.3396 1
 0 1 11 117.158 52.5078 1
 0 -1 -11 69.9679 51.016 5
 0 1 -11 166.082 54.9186 5
 0 -1 11 157.118 58.0436 7
 0 1 11 133.626 48.231 7
 0 -1 11 65.9539 36.5468 8
 0 1 11 95.8832 42.973 8
 0 1 -12 3089.92 190.689 3
 0 -1 -12 2946.86 186.042 3
 0 1 -12 2822.16 190.164 5
 0 1 12 3061.33 194.462 7
 0 -1 12 2942.6 198.972 1
 0 1 12 2795.59 193.28 1
 0 1 -12 3190.12 189.725 6
 0 -1 -12 3237.33 193.131 6
 0 -1 12 3074.38 181.9 8
 0 1 12 3711.15 200.782 8
 0 -1 -13 491.779 85.6436 3
 0 1 -13 518.75 91.8167 3
 0 1 -13 498.208 87.6294 5
 0 1 13 387.951 82.9309 7
 0 -1 -13 560.55 92.4561 6
 0 1 -13 453.493 81.0514 6
 0 1 13 514.38 78.7909 8
 0 -1 13 429.607 90.9063 1
 0 1 -14 2643.8 182.175 6
 0 1 -14 2286.67 174.406 5
 0 1 14 2538.5 170.815 8
 0 1 14 2080.49 183.257 1
 0 -1 14 2205.89 181.503 1
 0 -1 -14 2140.09 169.36 3
 0 1 15 591.122 87.9405 8
 0 1 -15 554.051 95.3377 6
 0 -1 -15 730.181 102.66 3
 0 -1 15 614.584 103.402 1
 0 -2 0 144648 579.157 2
 0 -2 0 144210 572.138 1
 0 -2 1 335917 1006.61 4
 0 -2 -1 434636 926.081 4
 0 2 1 328227 917.991 7
 0 -2 1 337536 1102.21 1
 0 -2 1 405066 1135.91 2
 0 -2 -1 326156 1051.8 3
 0 2 -2 647709 1511.19 3
 0 2 2 615099 1517.04 7
 0 -2 2 551256 1596 4
 0 -2 2 567191 1901.06 2
 0 -2 2 599847 1281.49 8
 0 -2 -2 534938 1696.67 2
 0 -2 -2 584499 1658.52 5
 0 2 -2 523590 1546.23 6
 0 2 -2 667338 1493.49 5
 0 -2 -2 605649 1261.99 6
 0 -2 -2 527381 1669.82 3
 0 -2 2 589612 1801.76 1
 0 -2 3 428225 1449.07 4
 0 -2 3 409781 1075.66 8
 0 2 3 415558 1287.97 7
 0 -2 -3 402265 1088.01 6
 0 -2 3 395842 1539.34 1
 0 2 3 399645 1431.51 8
 0 -2 3 418322 1571.54 7
 0 -2 -3 374681 1471.12 3
 0 -2 -3 395978 1479.29 2
 0 -2 -3 402907 1498.76 5
 0 2 -3 398935 1379.21 6
 0 2 4 261640 1088.72 1
 0 -2 4 280067 1329.3 7
 0 2 -4 230997 1044.63 3
 0 -2 -4 250522 1267.37 5
 0 2 -4 285681 1065.04 5
 0 -2 5 147987 1018.23 7
 0 -2 5 142329 1026.28 1
 0 -2 -5 151021 1013.48 3
 0 2 -5 129658 821.557 3
 0 2 5 141157 936.957 8
 0 -2 5 139654 748.636 8
 0 -2 -5 145211 785.469 6
 0 2 5 156721 875.998 1
 0 2 -5 139251 890.567 6
 0 -2 -5 155180 1044.25 5
 0 2 6 42108.4 524.428 8
 0 2 -6 26363.1 410.575 5
 0 -2 -6 36157.4 525.088 3
 0 -2 6 41721.7 563.749 7
 0 2 6 31485.9 441.821 7
 0 -2 -6 39879.2 443.266 6
 0 -2 -6 39043.4 551.9 5
 0 2 -6 34988.7 461.89 6
 0 -2 6 36117.4 405.207 8
 0 -2 6 36035.2 541.672 1
 0 2 -7 67190 702.011 5
 0 -2 7 69833.6 790.393 7
 0 2 7 67678.7 683.243 7
 0 -2 -7 69329.7 644.266 6
 0 -2 7 68211.2 609.482 8
 0 2 8 7167.03 244.649 8
 0 -2 8 8404.27 298.624 7
 0 2 -8 6991.37 241.496 5
 0 -2 -8 7678.54 267.578 3
 0 2 -8 7223.09 237.938 3
 0 2 8 7845.15 251.364 7
 0 -2 -8 7987.92 238.414 6
 0 2 8 6998.99 239.053 1
 0 -2 8 8729.3 302.092 1
 0 2 -8 7565.31 244.343 6
 0 -2 -8 7869.02 281.721 5
 0 -2 8 7225.72 217.922 8
 0 -2 9 21605.6 413.847 8
 0 2 9 25277.2 465.854 7
 0 -2 -9 21325.2 485.116 5
 0 2 -9 26244.7 470.308 6
 0 2 9 20116.1 436.354 1
 0 -2 9 21653.4 489.22 1
 0 2 -9 15613.7 390.793 5
 0 2 -9 21261.4 435.466 3
 0 -2 -9 22891.5 479.056 3
 0 -2 9 25963.2 539.277 7
 0 2 9 22512.8 447.084 8
 0 2 10 134.595 52.4034 1
 0 -2 10 142.598 59.2316 1
 0 -2 10 129.627 51.7586 7
 0 -2 10 75.1857 34.2898 8
 0 -2 -10 125.895 52.0148 5
 0 -2 -10 184.752 63.0935 3
 0 2 -10 96.1608 46.7917 3
 0 2 -10 91.9176 44.5396 6
 0 -2 -10 111.29 47.3196 6
 0 -2 11 10696.5 324.261 8
 0 2 -11 12142 362.532 3
 0 -2 -11 10489.6 342.331 3
 0 -2 -11 11058.4 342.555 6
 0 2 -11 12345.1 363.274 6
 0 -2 -11 9648.06 330.722 5
 0 2 -11 10242.3 342.652 5
 0 2 11 11771 351.9 8
 0 2 11 11116.9 355.861 7
 0 -2 11 10723.6 370.373 1
 0 -2 -12 473.518 85.7269 3
 0 2 -12 533.512 85.9598 6
 0 -2 -12 466.285 79.1258 6
 0 2 -12 495.882 87.3128 5
 0 2 12 518.461 78.9124 8
 0 2 12 539.984 84.6221 7
 0 -2 12 606.23 102.82 1
 0 2 12 452.577 86.3167 1
 0 2 13 2767.93 174.648 8
 0 2 -13 2689.75 180.118 6
 0 -2 13 2198.33 180.991 1
 0 2 13 2364.53 179.591 7
 0 2 -13 2040.97 168.724 5
 0 -2 -13 2848.24 187.077 3
 0 2 14 42.7929 34.5374 8
 0 2 -14 76.7678 49.6097 6
 0 2 -14 56.031 45.6123 5
 0 -2 -14 54.661 47.4084 3
 0 -2 14 72.96 54.6289 1
 0 2 14 8.45727 39.7649 7
 0 -2 -15 379.172 77.6533 3
 0 2 -15 508.006 87.0607 6
 0 2 15 471.441 77.3553 8
 0 -2 15 332.474 81.8061 1
 0 2 -16 391.069 82.4173 6
 0 -2 -16 534.07 90.9547 3
 0 -2 16 557.644 102.49 1
 0 -3 0 35.6364 29.7781 1
 0 -3 0 0.54423 20.8897 2
 0 -3 0 10.4184 17.5012 4
 0 -3 -1 3978.33 97.4014 1
 0 -3 1 3247.42 66.7853 3
 0 3 1 3567.16 91.1528 7
 0 -3 -1 4245.49 114.529 3
 0 -3 1 3955.77 122.927 1
 0 3 -1 3120.21 73.1639 5
 0 -3 1 2751.46 90.7379 2
 0 -3 -1 3683.18 77.9926 4
 0 -3 -1 3481.11 109.857 2
 0 -3 -2 54571.7 476.276 2
 0 -3 -2 48983.2 319.558 4
 0 -3 -2 56144.1 486.505 3
 0 3 -2 51072.1 341.944 5
 0 -3 2 50805 494.541 2
 0 -3 2 55978.5 511.454 1
 0 3 -2 53424.3 421.376 6
 0 3 -3 2332.73 78.8708 3
 0 -3 3 2013.74 93.1106 4
 0 3 3 2031.58 102.601 8
 0 -3 -3 2106.71 105.905 2
 0 -3 3 2061.06 114.088 1
 0 3 -3 2175.98 82.4546 5
 0 3 -3 2117.68 97.3641 6
 0 -3 -3 2285.26 109.977 3
 0 -3 -3 1904.56 55.1729 6
 0 -3 -4 12520.4 270.79 2
 0 -3 4 18569.4 439.673 2
 0 -3 4 18530.4 320.546 4
 0 3 4 17690.7 315.247 8
 0 -3 4 17530.5 353.862 1
 0 3 4 12797.7 171.11 1
 0 -3 -4 15439.2 305.445 5
 0 3 -4 17912.1 299.443 6
 0 3 4 17850.2 259.225 7
 0 -3 -4 18045.8 228.043 6
 0 3 -4 17178.1 246.889 5
 0 -3 4 16626.2 191.715 8
 0 -3 -4 19348.1 343.732 3
 0 3 5 7011.4 210.698 8
 0 -3 5 8020.49 253.789 1
 0 3 5 7193.8 183.985 1
 0 -3 -5 5965.93 208.681 2
 0 3 -5 6525.15 171.738 3
 0 -3 -5 7108.13 222.736 3
 0 3 5 6607.92 174.467 7
 0 -3 -5 6279.38 141.792 6
 0 -3 5 6484.82 143.263 8
 0 3 -5 6596.23 194.627 6
 0 -3 -5 7052.42 227.545 5
 0 3 6 84034.4 697.034 1
 0 -3 6 83745.7 900.458 1
 0 3 -6 92570.5 797.125 6
 0 -3 -6 84873.1 863.03 5
 0 3 6 90601.5 813.683 8
 0 -3 6 95085.3 960.095 7
 0 3 -6 93756.4 748.916 5
 0 3 6 94689.8 740.516 7
 0 -3 -6 80770.1 624.847 6
 0 3 -6 87867.1 683.935 3
 0 -3 -6 97451.6 879.636 3
 0 -3 6 86507.2 607.905 8
 0 -3 -7 27233.7 507.643 5
 0 3 -7 25673.7 425.087 6
 0 -3 -7 26567.8 482.459 3
 0 3 -7 22097.1 401.354 5
 0 -3 7 25351 526.315 7
 0 3 7 27626.4 465.953 8
 0 3 7 25512.4 434.594 7
 0 -3 7 25520.5 365.04 8
 0 3 7 20776.4 377.048 1
 0 -3 7 24229.9 489.662 1
 0 -3 8 13270.8 379.043 1
 0 3 8 11817.4 305.025 1
 0 3 -8 13361.9 326.766 6
 0 -3 -8 14274 383.484 5
 0 3 8 13346.2 339.111 8
 0 3 -8 15950.4 358.319 5
 0 3 8 13421.2 318.927 7
 0 -3 -8 15146.5 324.781 6
 0 -3 8 13463.1 289.785 8
 0 3 -8 15803.4 342.654 3
 0 -3 -8 14329.8 369.618 3
 0 -3 9 14245.6 408.635 1
 0 3 -9 12108.4 322.653 6
 0 3 9 12850.1 342.296 8
 0 3 -9 16602.4 401.287 5
 0 3 9 13794.6 344.274 7
 0 -3 9 13980.3 319.531 8
 0 -3 -9 14128.1 381.901 3
 0 3 -9 10493.4 310.571 3
 0 -3 -9 12707.7 321.94 6
 0 -3 -10 4433.02 226.148 3
 0 -3 -10 4224.32 222.644 5
 0 3 -10 5281.21 240.943 5
 0 3 10 4658.41 217.76 8
 0 -3 10 4962.27 247.207 1
 0 3 10 4344.64 220.839 1
 0 -3 -10 4255.26 196.656 6
 0 -3 -11 10198.3 339.429 3
 0 3 -11 9157.72 327.386 5
 0 3 11 9707.71 326.762 7
 0 3 11 10929.8 341.159 8
 0 -3 11 10148.4 369.483 1
 0 3 -11 10719.4 338.439 6
 0 3 -12 435.268 82.6388 5
 0 3 12 510.981 85.003 7
 0 3 -12 484.775 84.6744 6
 0 -3 -12 484.502 84.6406 3
 0 3 -13 4573.06 251.015 5
 0 3 13 4269.71 234.923 7
 0 3 -13 4687.51 234.042 6
 0 -3 13 4010.92 244.534 1
 0 -3 -13 4338.5 233.035 3
 0 3 14 204.392 66.2602 7
 0 -3 14 245.538 74.9834 1
 0 3 -14 262.98 74.1092 5
 0 -3 15 2533.65 201.432 1
 0 -3 -15 2727.22 184.858 3
 0 3 15 2816.31 176.934 8
 0 3 -15 2693.59 181.175 6
 0 -3 -16 26.1695 43.3228 3
 0 -3 16 28.8375 50.2126 1
 0 3 -16 -9.48644 42.566 6
 0 3 16 4.4103 30.3552 8
 0 -4 0 1037.39 65.811 2
 0 -4 -1 360155 1101.56 4
 0 -4 1 359381 1271.4 2
 0 -4 1 378655 1043.05 3
 0 4 -1 366109 1085.52 5
 0 -4 -1 379887 1269.34 1
 0 4 2 1950.42 78.8367 7
 0 -4 2 1338.66 93.3745 1
 0 -4 -2 1534.2 90.2503 3
 0 -4 -2 1794.5 97.1013 2
 0 -4 -2 1894.5 68.3976 4
 0 4 3 268604 1094.76 7
 0 4 3 270595 1332.81 8
 0 -4 -3 272035 1354.1 3
 0 -4 -4 77961.3 746.74 2
 0 4 4 75749.9 705.206 8
 0 -4 4 74938.5 884.638 2
 0 -4 4 96878.9 741.898 4
 0 -4 4 84460 808.431 1
 0 -4 -4 78623.6 569.162 4
 0 4 -4 88307.9 583.514 5
 0 -4 -4 86865 760.742 3
 0 4 -4 86305.5 697.976 6
 0 4 4 74950.6 587.986 7
 0 -4 -4 93057.5 396.643 6
 0 -4 4 71928.3 412.538 8
 0 4 5 179328 959.802 7
 0 -4 -5 223557 1301.27 2
 0 -4 5 169964 1088.83 4
 0 -4 5 187642 1304 1
 0 4 5 183679 1163.7 8
 0 4 5 148062 857.544 1
 0 4 -5 187678 1109.94 6
 0 -4 5 154044 745.106 8
 0 -4 5 174672 1537.96 2
 0 -4 -5 162892 948.435 4
 0 -4 -5 179253 761.308 6
 0 -4 -5 181967 1210.28 3
 0 4 -5 155591 818.912 3
 0 4 6 24837.1 437.815 8
 0 4 -6 23741.3 412.759 6
 0 4 6 27406.6 391.559 7
 0 4 -6 18106.5 326.989 5
 0 4 6 30169.6 388.288 1
 0 -4 6 25185.2 493.715 1
 0 -4 6 16634.1 517.746 2
 0 -4 -6 34083.7 371.583 6
 0 -4 6 18127.9 272.328 8
 0 4 -6 13287 253.954 3
 0 -4 -6 24763.4 460.358 3
 0 4 7 86805.6 861.115 8
 0 4 -7 81972.6 794.687 6
 0 4 7 81004.7 745.65 7
 0 4 -7 89291.3 817.142 5
 0 4 7 74079.3 702.106 1
 0 -4 7 84028 946.779 1
 0 -4 7 78760.5 1249.47 2
 0 -4 -7 80330.8 666.671 6
 0 -4 7 70124.1 602.744 8
 0 -4 -7 86803.9 892.433 3
 0 4 -7 63029.5 611.877 3
 0 4 -8 28097.2 476.749 6
 0 -4 8 25092.9 530.122 1
 0 4 8 20822.3 405.457 1
 0 4 8 25349.6 443.662 7
 0 -4 -8 26750.6 511.642 3
 0 4 8 24168.5 467.395 8
 0 4 -8 23808.2 446.499 5
 0 4 -9 28843.5 528.842 5
 0 -4 9 28904.3 592.691 1
 0 4 9 28235.1 511.324 7
 0 4 9 29096.6 526.588 8
 0 4 -10 20033.7 474.441 5
 0 4 10 20360.7 456.959 8
 0 -4 -10 20298.3 482.819 3
 0 -4 10 20047.1 515.078 1
 0 4 11 11549.6 354.474 8
 0 -4 -11 11116.4 363.706 3
 0 -4 11 9829.43 584.222 2
 0 4 -11 11675.8 359.164 6
 0 4 11 8988.64 314.668 7
 0 -4 11 10181.1 434.879 1
 0 4 -11 9077.46 332.536 5
 0 4 12 2583.79 183.064 7
 0 -4 -12 2538.09 178.154 3
 0 4 -12 2757.52 194.237 5
 0 -4 12 2570.85 194.874 1
 0 4 12 2657.56 173.046 8
 0 4 -12 2626.94 177.604 6
 0 -4 13 4113.44 249.038 1
 0 4 -13 3337.49 216.983 5
 0 4 13 3602.96 199.246 8
 0 4 13 3897.28 222.949 7
 0 -4 -14 25.7066 47.4436 3
 0 4 14 8.4168 34.8792 8
 0 -4 14 31.7608 50.2752 1
 0 4 -14 6.78509 38.4472 6
 0 4 -15 1877.26 153.21 6
 0 4 15 1922.51 146.5 8
 0 -4 -15 1875.77 157.122 3
 0 -4 15 1810.1 170.381 1
 0 4 -16 583.821 88.7748 6
 0 4 16 551.702 82.5518 8
 0 -4 16 407.167 85.9 1
 0 -4 -16 596.106 95.137 3
 0 -5 0 18.4322 23.2478 3
 0 5 0 4.23244 18.0519 7
 0 5 0 12.8859 17.1987 6
 0 -5 0 5.72384 18.2594 4
 0 -5 0 1.899 23.0129 2
 0 -5 -1 8877.06 200.755 3
 0 -5 1 8703.22 238.993 1
 0 5 1 6549.23 161.053 7
 0 -5 1 8661.13 185.787 4
 0 5 -1 8014.91 148.791 5
 0 -5 -1 5874.68 176.645 2
 0 -5 1 10298.8 218.68 2
 0 5 1 7648.59 124.69 6
 0 5 -1 8792.72 185.966 6
 0 5 2 2446.06 44.5968 6
 0 5 -2 1782.85 73.4064 5
 0 5 2 1631.48 79.6929 7
 0 -5 2 4235.3 144.449 4
 0 -5 2 3763.35 135.901 2
 0 -5 3 34444.8 478.719 2
 0 -5 -3 34118.1 483.272 3
 0 5 -3 34636.6 445.305 6
 0 -5 -3 29483.7 322.101 4
 0 -5 3 32836.8 514.119 1
 0 5 3 27763.6 340.572 7
 0 5 4 29303.9 451.745 8
 0 -5 -4 32789.4 356.913 4
 0 -5 4 28733.8 503.46 1
 0 -5 4 27880.9 489.787 2
 0 -5 -4 28264 461.824 3
 0 5 -4 27688.1 415.96 6
 0 5 -4 23987.9 310.436 5
 0 5 -4 27292.6 249.263 3
 0 -5 -4 28361.3 472.18 2
 0 5 4 24480.6 341.105 7
 0 -5 -5 32184.6 402.403 4
 0 -5 5 32998.8 637.788 2
 0 5 6 2841.12 129.637 7
 0 -5 6 2472.97 215.527 2
 0 -5 6 2582.72 173.919 1
 0 5 -6 2579.47 147.05 6
 0 5 6 2862.23 156.136 8
 0 -5 -6 2389.94 124.381 4
 0 -5 -6 3167.55 173.045 3
 0 5 7 21024.2 387.082 7
 0 -5 7 20637.9 640.065 2
 0 -5 7 23225.4 517.717 1
 0 5 -7 20012.8 384.538 5
 0 5 -7 23478.8 435.015 6
 0 -5 -7 23766.6 480.936 3
 0 -5 -7 25226.3 440.782 4
 0 5 7 24458.8 471.05 8
 0 -5 8 232.16 91.3477 2
 0 5 -8 226.201 53.6647 5
 0 -5 -8 348.086 62.5174 4
 0 5 8 302.29 53.1253 7
 0 5 9 29838.7 518.714 7
 0 -5 9 24774.2 813.709 2
 0 5 -9 20778.2 446.639 6
 0 -5 -9 32281.2 597.611 3
 0 5 9 28426.8 532.751 8
 0 5 -9 25122.6 497.041 5
 0 -5 9 23525.5 588.789 1
 0 -5 -9 29052.6 552.412 4
 0 -5 -10 10934.3 358.454 4
 0 5 10 9014.71 301.464 7
 0 -5 10 10536.7 388.319 1
 0 5 10 11267.3 342.004 8
 0 5 -10 9731.05 316.228 6
 0 -5 -10 11797.4 369.373 3
 0 -5 -11 7164.75 291.258 3
 0 5 11 6339.74 266.785 7
 0 -5 11 6515.71 317.213 1
 0 5 11 7041.6 281.229 8
 0 5 -11 7279.88 290.393 6
 0 5 -12 6231.02 272.808 6
 0 -5 -12 6011.05 273.704 3
 0 -5 12 5750.37 290.715 1
 0 5 12 6365.51 269.176 8
 0 5 13 4425.12 240.928 7
 0 -5 14 4912.6 274.426 1
 0 5 -14 4392.47 227.597 6
 0 -5 -15 2194.17 167.325 3
 0 -5 15 2218.74 185.815 1
 0 5 15 1883 144.194 8
 0 -5 16 1254.3 148.211 1
 0 5 16 1721.87 137.504 8
 0 5 -16 1761.39 146.926 6
 0 -5 -16 1602.31 148.443 3
 0 6 0 16541.2 284.545 7
 0 -6 0 16720 278.349 3
 0 -6 0 18236.9 315.756 2
 0 -6 0 15919.9 318.721 1
 0 6 0 14969.5 245.546 6
 0 6 0 14765.4 245.17 5
 0 6 1 48774.3 498.354 7
 0 6 -1 57754.1 533.851 6
 0 -6 -1 57872.3 575.696 1
 0 -6 1 62555.4 686.831 1
 0 6 -1 71033.5 509.411 5
 0 -6 1 77537 616.098 4
 0 -6 1 62237.6 578.946 2
 0 -6 -1 61709.9 585.504 3
 0 -6 1 56598.6 445.297 3
 0 6 2 99451.2 800.112 8
 0 -6 -2 83532.4 732.893 3
 0 -6 2 75668.7 677.691 4
 0 -6 2 84073.5 851.851 1
 0 6 -2 89115 706.211 6
 0 6 -2 63321.7 491.398 5
 0 -6 -2 99497.3 580.197 4
 0 -6 2 90091.6 721.448 2
 0 -6 -2 80026.5 737.409 2
 0 6 2 126454 751.658 7
 0 6 -3 50182.1 422.733 5
 0 -6 3 24882.7 386.267 4
 0 -6 -3 36593.7 531.839 2
 0 -6 -3 36250.1 508.654 3
 0 6 3 35493.9 504.339 8
 0 -6 3 37865.1 480.512 2
 0 6 -3 33622.5 462.577 6
 0 -6 3 36254.6 582.916 1
 0 -6 -3 16216.3 253.903 4
 0 6 3 29403.2 361.303 7
 0 -6 4 70547.8 852.716 1
 0 -6 -4 60511.2 700.776 3
 0 6 -4 59744.2 655.357 6
 0 -6 -4 49255.9 478.121 4
 0 6 -4 53541.4 495.058 5
 0 -6 4 60038.4 708.07 2
 0 -6 -4 57938.4 709.629 2
 0 -6 4 43704.8 556.237 4
 0 6 5 8085.01 269.385 8
 0 -6 -5 8152.95 272.969 3
 0 6 -5 8643.64 262.108 6
 0 -6 5 8301.81 303.456 1
 0 6 5 8010.56 206.126 7
 0 -6 5 8979.69 305.282 2
 0 6 -6 81162.4 716.97 5
 0 -6 6 92746.7 1054.75 1
 0 6 6 101126 971.765 8
 0 6 6 93149.5 770.069 7
 0 -6 -6 87568.5 997.491 2
 0 -6 -6 109342 1057.91 3
 0 6 -6 97552.2 907.914 6
 0 -6 6 99660.6 1174.34 2
 0 6 -7 232.769 60.2008 6
 0 6 7 247.488 62.4976 8
 0 -6 7 177.878 66.454 1
 0 6 -7 247.947 49.9443 5
 0 -6 -7 247.119 64.4176 3
 0 6 8 88520.8 950.521 8
 0 -6 8 86565.8 1070.43 1
 0 6 9 796.259 96.7907 8
 0 6 -9 557.427 83.307 6
 0 -6 -9 570.848 92.7916 3
 0 -6 9 461.135 96.2714 1
 0 6 9 533.34 76.0066 7
 0 -6 10 27665.7 633.327 1
 0 6 10 27068.3 533.613 7
 0 6 -11 1332.84 128.58 6
 0 -6 11 1247.3 145.376 1
 0 -6 -11 1310.65 134.41 3
 0 6 11 1326.36 128.483 8
 0 6 12 14879.7 409.889 8
 0 -6 -12 15764.2 435.684 3
 0 -6 12 14455.3 472.993 1
 0 6 -12 16285.8 435.161 6
 0 6 13 2477.13 167.757 8
 0 -6 13 2304.12 198.22 1
 0 -6 -13 2090.58 169.994 3
 0 -6 14 2033.75 177.689 1
 0 6 14 2025.1 152.674 8
 0 6 -14 1928.37 154.575 6
 0 -6 -14 1961.52 165.436 3
 0 6 -15 1200.8 126.557 6
 0 -6 -15 1594.09 148.449 3
 0 -7 0 17.0611 32.0259 1
 0 7 0 25.2922 20.9917 6
 0 -7 0 16.4392 26.239 3
 0 7 0 4.43048 21.0166 8
 0 -7 0 8.63546 20.8837 4
 0 7 0 13.5742 21.8203 7
 0 7 0 3.64916 18.5207 5
 0 7 -1 20.7929 17.8364 5
 0 -7 -1 26.1881 22.0758 4
 0 -7 -1 43.6747 30.891 1
 0 -7 1 23.0504 34.9468 1
 0 -7 1 84.3843 31.2554 2
 0 -7 -1 25.1371 26.672 2
 0 7 -1 32.617 26.6681 6
 0 7 1 18.1393 27.3415 8
 0 7 -1 24.2419 21.2281 8
 0 7 1 21.1009 24.2927 7
 0 -7 -1 29.7117 30.4851 3
 0 -7 -2 1967.59 126.379 2
 0 -7 2 1759.87 104.001 2
 0 -7 2 2096.39 148.245 1
 0 7 -2 2239.97 124.36 6
 0 7 2 1869.36 119.901 8
 0 -7 -2 2295.89 91.3418 4
 0 -7 -2 1939.44 123.737 3
 0 7 2 1152.53 78.5067 7
 0 -7 2 1428.99 96.0913 4
 0 7 -2 1665.94 80.7752 5
 0 7 -3 4692.45 187.867 6
 0 7 3 4725.94 199.369 8
 0 -7 -3 5274.93 211.36 3
 0 -7 3 5209.82 188.381 4
 0 7 3 4382.66 152.241 7
 0 -7 3 5125.9 237.162 1
 0 -7 3 5063.63 182.865 2
 0 -7 -3 4667.05 212.383 2
 0 -7 -4 3218.55 183.973 2
 0 -7 -4 3457.08 178.919 3
 0 7 -4 3556.78 172.972 6
 0 -7 4 3463.35 197.347 1
 0 7 4 3686.17 183.414 8
 0 7 5 15424.1 302.708 7
 0 -7 5 17388.2 461.266 1
 0 -7 -5 17131.8 407.323 3
 0 7 -5 15910.8 367.967 6
 0 7 5 17953.4 407.233 8
 0 -7 5 14294.7 352.883 4
 0 -7 -5 15582.7 385.842 2
 0 7 6 16050.2 395.634 8
 0 -7 6 14975.2 448.574 1
 0 7 -6 14966.3 365.236 6
 0 7 7 4333.38 215.553 8
 0 -7 -7 4438.53 224.291 3
 0 -7 7 4229.38 249.411 1
 0 7 -7 4495.18 207.658 6
 0 7 8 8225.63 313.669 8
 0 -7 -8 8477.57 314.719 3
 0 -7 9 279.948 83.4836 1
 0 7 9 283.756 69.1711 8
 0 -7 -9 304.328 75.2719 3
 0 7 -9 212.712 59.3226 6
 0 -7 -10 11749.2 377.994 3
 0 7 10 11804.7 365.843 8
 0 7 11 33.4088 43.3591 8
 0 7 -11 6.87099 47.5537 6
 0 -7 -11 28.5109 51.4532 3
 0 -7 11 45.5681 55.3202 1
 0 -7 -12 15074.7 438.051 3
 0 7 12 15173.4 414.389 8
 0 7 13 137.238 53.0105 8
 0 7 -13 187.63 63.0108 6
 0 -7 -13 129.975 61.7653 3
 0 -7 13 195.375 75.3653 1
 0 -7 -14 7340.37 305.604 3
 0 7 14 6727.01 272.887 8
 0 -7 14 7371.76 337.789 1
 0 7 -15 90.6595 55.2946 6
 0 7 15 63.1953 42.5515 8
 0 -7 15 57.905 57.446 1
 0 -7 -15 72.0596 55.82 3
 0 -8 0 27396.5 393.033 4
 0 8 0 25924.8 438.594 7
 0 8 0 25679 417.088 8
 0 -8 0 27514.7 417.859 3
 0 -8 -1 7086.64 234.546 3
 0 8 -1 7101.29 244.505 7
 0 8 -1 7470.6 216.084 6
 0 -8 1 7025.32 276.219 1
 0 -8 -1 7465.17 246.098 2
 0 8 1 7070.63 234.385 8
 0 8 2 24630.7 458.908 8
 0 8 -2 26203.6 439.237 6
 0 -8 -2 24715.5 454.72 3
 0 -8 -2 26878.7 498.699 2
 0 -8 2 25662.1 553.791 1
 0 -8 -3 15648.8 379.003 3
 0 8 -3 20164.1 400.959 6
 0 -8 3 18168.7 481.397 1
 0 -8 -3 18190.2 417.935 2
 0 8 3 17432.7 404.809 8
 0 -8 -4 29495.6 542.412 3
 0 -8 4 27564.5 494.028 4
 0 8 -4 28170.6 494.634 6
 0 -8 4 31324.6 653.426 1
 0 8 4 30004.5 556.351 8
 0 -8 -4 26789 520.972 2
 0 8 -5 15549.6 388.147 6
 0 -8 -5 17204.5 429.663 3
 0 -8 5 20729.9 539.896 1
 0 8 5 16264.3 408.284 8
 0 -8 -5 11581.1 344.472 2
 0 -8 -6 38645.4 653.378 3
 0 8 -6 38044.3 613.62 6
 0 -8 -7 8674.06 323.996 3
 0 8 -7 8072.14 293.162 6
 0 -8 7 9066.38 363.261 1
 0 8 7 9204.89 322.349 8
 0 8 -8 29641.2 565.446 6
 0 -8 8 27314.1 652.306 1
 0 8 9 10701.2 348.572 8
 0 -8 -9 10016.5 353.498 3
 0 -8 -10 21393.7 523.1 3
 0 8 10 22604.1 519.433 8
 0 8 -10 22606.3 527.027 6
 0 -8 11 3973.06 259.669 1
 0 -8 -11 4311.87 237.372 3
 0 8 -11 4009.66 225.035 6
 0 -8 -12 10083.2 364.835 3
 0 8 -12 10391.2 359.918 6
 0 8 12 9678.7 330.536 8
 0 -8 13 766.151 130.911 1
 0 8 -14 3383.44 206.014 6
 0 -8 14 3754.06 257.022 1
 0 8 14 3819.41 206.593 8
 0 -8 -14 3198.08 207.673 3
 0 -9 -1 20.9573 30.189 2
 0 -9 1 7.39478 38.6877 1
 0 -9 -2 15.5676 29.0367 2
 0 -9 2 39.4519 30.5286 4
 0 9 2 -1.84812 27.8687 8
 0 -9 3 283.81 74.384 1
 0 -9 -3 157.183 51.1506 3
 0 -9 -3 97.5967 44.7727 2
 0 9 3 144.617 50.0997 8
 0 9 -3 112.194 44.7346 6
 0 -9 3 169.17 48.2116 4
 0 -9 -4 730.348 93.972 2
 0 9 4 845.602 101.804 8
 0 9 -4 960.181 101.801 6
 0 -9 -4 794.859 101.447 3
 0 -9 4 865.007 125.165 1
 0 9 5 5341.8 249.048 8
 0 9 6 1458.9 135.611 8
 0 9 -6 1368.29 125.697 6
 0 -9 6 1291.41 157.618 1
 0 -9 -6 1392.2 136.527 3
 0 -9 -7 5696.93 271.6 3
 0 -9 7 5198.7 299.745 1
 0 9 -7 4905.19 236.139 6
 0 9 7 4972.41 244.324 8
 0 -9 -8 8122.56 325.396 3
 0 9 8 7342.49 296.389 8
 0 -9 -9 7746.28 318.672 3
 0 9 -9 7490.08 308.096 6
 0 -9 10 6335.59 339.702 1
 0 -9 -10 6691.79 300.627 3
 0 9 -10 6466.01 288.073 6
 0 -9 -11 8450.34 337.74 3
 0 -9 11 9007.81 402.837 1
 0 9 -11 8698.15 329.595 6
 0 9 11 8441.66 319.11 8
 0 -9 -12 2566.33 193.496 3
 0 9 12 2906.67 186.573 8
 0 9 -13 6220.13 275.621 6
 0 -9 -13 6650.6 297.216 3
 0 9 13 7228.14 292.477 8
 0 -9 13 6843.64 371.148 1
 0 -10 -3 13359.6 404.499 3
 0 -10 3 12880.3 467.782 1
 0 10 4 6555.3 276.679 8
 0 -10 5 29295.5 723.741 1
 0 10 5 26338.1 571.952 8
 0 -10 -6 3006.89 203.872 3
 0 -10 6 2677.74 226.203 1
 0 10 -6 2603.7 179.282 6
 0 10 6 2631.16 179.17 8
 0 10 7 26585.4 569.139 8
 0 -10 -8 1057.5 128.193 3
 0 -10 8 1049.99 154.01 1
 0 10 -8 1132.23 129.016 6
 0 10 8 998.575 120.492 8
 0 -10 -9 22767.1 558.736 3
 0 10 9 21095.1 517.501 8
 0 -10 -10 3526.86 224.71 3
 0 -10 10 3327.91 269.316 1
 0 10 -10 3964.89 227.992 6
 0 10 10 3636 224.824 8
 0 -10 -11 8831.34 350.42 3
 0 -10 11 7904.51 390.236 1
 0 10 11 7964.16 308.803 8
 0 10 -12 562.204 95.0903 6
 0 10 12 588.42 88.9149 8
 0 -10 -12 573.095 102.154 3
 0 -10 12 531.825 118.101 1
 0 -10 -13 2655.04 205.662 3
 0 -10 13 2350.63 216.936 1
 0 -11 5 72.7311 65.2221 1
 0 -11 -5 28.0237 47.2463 3
 0 11 5 35.739 41.9486 8
 0 11 6 1356.5 138.946 8
 0 -11 -7 3186.47 217.454 3
 0 -11 7 3286.69 261.786 1
 0 11 7 3626.93 223.013 8
 0 11 -8 3674.69 226.913 6
 0 -11 -8 3449.61 227.513 3
 0 -11 8 2907.41 266.063 1
 0 11 8 3637.89 226.638 8
 0 11 -9 6243.47 298.343 6
 0 -11 -9 7096.68 325.367 3
 0 -11 9 6153.22 362.391 1
 0 11 9 7179.33 318.747 8
 0 11 -10 1017.36 126.785 6
 0 -11 -10 943.789 128.338 3
 0 -11 10 887.409 145.548 1
 0 11 10 938.779 115.086 8
 0 11 -11 5337.77 265.104 6
 0 11 11 5263.83 250.482 8
 0 -11 11 5431.41 332.222 1
 0 11 -12 426.395 89.5112 6
 0 11 12 206.801 77.2656 8
 0 -11 -12 602.088 103.636 3
 0 -11 12 434.132 112.199 1
 0 12 8 985.106 122.365 8
 0 -12 -8 907.249 127.067 3
 0 -12 -9 6157.71 316.431 3
 0 -12 9 5522.57 371.231 1
 0 12 9 5953.01 281.277 8
 0 -12 -10 1289.1 148.806 3
 0 12 10 1176.56 127.276 8
 0 12 -10 1037.56 129.735 6
 0 -12 10 973.211 158.042 1
 0 -12 11 2729.74 247.615 1
 0 -12 -11 2679.9 207.105 3
 1 0 0 34.2088 15.3011 4
 1 0 0 184.394 21.2939 7
 1 0 0 10.9564 14.3659 6
 -1 0 0 9.6905 16.6491 8
 -1 0 0 169.251 18.1953 5
 -1 0 0 30.6325 22.6647 2
 -1 0 1 155595 585.263 8
 1 0 -1 155404 572.143 3
 -1 0 -1 156906 585.692 5
 1 0 1 161728 555.092 4
 1 0 1 158858 595.805 7
 -1 0 -1 162193 620.932 2
 -1 0 1 152964 629.155 1
 1 0 -2 48581.5 334.09 3
 -1 0 2 49950.4 378.461 1
 -1 0 -3 66691.8 602.776 3
 1 0 3 69192.1 368.228 1
 1 0 3 70208.2 485.534 4
 1 0 -3 58386.7 465.5 5
 -1 0 -3 75241.9 540.458 2
 -1 0 3 63173.3 562.793 7
 1 0 3 75679.9 506.434 7
 1 0 -3 72496 499.885 6
 1 0 -3 66267 468.591 3
 -1 0 -3 70179 498.492 5
 -1 0 3 70790.2 481.177 8
 -1 0 3 70593.7 527.234 1
 1 0 4 90778.5 625.842 4
 -1 0 4 100160 664.626 8
 -1 0 -4 87671.8 639.407 5
 1 0 4 101474 615.2 1
 1 0 -4 90830.5 682.684 5
 1 0 4 89926.3 648.812 7
 1 0 -4 98312.5 662.318 6
 -1 0 -4 88354.7 644.082 2
 -1 0 -4 87641.5 723.353 3
 -1 0 4 94397.3 676.238 1
 1 0 -4 87152.9 605.716 3
 -1 0 4 96802.4 704.521 7
 1 0 5 91853.2 705.189 7
 -1 0 5 94914.6 760.812 7
 1 0 -5 88062 685.288 3
 -1 0 -5 90920.3 801.828 3
 1 0 -5 87120 742.897 5
 -1 0 -5 86573.8 685.731 5
 1 0 5 88251.1 762.263 1
 1 0 5 82527 645.826 8
 1 0 6 49097.4 529.44 8
 1 0 6 52548.4 574.776 7
 -1 0 6 50708.6 599.339 7
 1 0 -6 37626.2 481.872 6
 1 0 6 49823.5 602.057 1
 -1 0 -6 48160.9 568.039 5
 1 0 -6 48572.5 585.29 5
 -1 0 -6 47231.5 616.361 3
 1 0 -6 47739.5 532.515 3
 -1 0 6 40295.7 495.652 8
 -1 0 6 48541.9 584.193 1
 -1 0 -7 87347.4 877.793 3
 1 0 -7 84443.9 780.236 3
 1 0 7 91018.5 869.766 1
 -1 0 7 88785.7 851.534 1
 1 0 7 88240.8 774.001 8
 -1 0 7 90363.6 867.874 7
 1 0 -7 86782.1 842.497 5
 -1 0 -7 86276.8 739.554 6
 1 0 -7 88265.8 789.327 6
 1 0 -8 65469.3 782.089 5
 1 0 -8 67356.5 729.334 6
 -1 0 8 67828.2 720.426 8
 -1 0 -8 68072.4 779.245 5
 1 0 8 69768.8 728.803 8
 1 0 8 68934 809.896 1
 -1 0 -8 67596.6 792.61 3
 -1 0 -9 71547.6 746 6
 1 0 -9 61386.2 732.002 6
 -1 0 9 65342.9 732.792 8
 -1 0 -9 57743.4 780.636 5
 1 0 9 59584 735.943 7
 -1 0 9 61996.4 836.07 7
 1 0 9 59133.5 697.277 8
 -1 0 9 59983.3 780.608 1
 1 0 9 57018.6 766.292 1
 1 0 -9 63210.3 747.086 3
 -1 0 -9 65857.7 794.966 3
 -1 0 -10 25301.5 478.913 6
 1 0 -10 27514.8 512.077 6
 -1 0 10 28094.5 494.221 8
 -1 0 -10 29671 567.485 5
 1 0 10 27559.7 513.903 8
 1 0 10 31051.2 570.949 7
 -1 0 -10 32493.6 606.45 3
 1 0 -10 28238.9 521.12 3
 -1 0 10 27291.5 558.667 1
 1 0 -11 4647.77 223.644 3
 -1 0 -11 5313.79 252.328 3
 -1 0 11 4610.21 245.958 1
 1 0 11 4326.31 233.018 1
 -1 0 -11 6040.24 256.11 6
 1 0 -11 5501.1 242.944 6
 1 0 11 4921.73 240.937 7
 -1 0 -11 6383.85 280.019 5
 -1 0 11 5425.57 230.528 8
 1 0 12 5080.94 234.787 8
 1 0 -12 5734.51 257.203 6
 -1 0 -12 5668.62 257.404 6
 -1 0 12 4651.2 259.551 1
 1 0 12 5561.19 277.254 1
 -1 0 -12 5285.57 256.754 3
 1 0 -12 5032.46 239.873 3
 -1 0 12 5489.86 242.477 8
 1 0 13 3416.43 217.962 1
 -1 0 13 3957.83 239.635 1
 -1 0 -13 3764.07 221.991 3
 1 0 13 3636.81 207.769 8
 1 0 -13 2947.78 184.534 6
 1 0 13 3799.9 221.372 7
 -1 0 -13 3634.7 219.58 5
 -1 0 14 2938.48 190.842 8
 1 0 -14 2620.53 185.505 3
 -1 0 -14 2552.03 185.918 3
 1 0 14 2798.51 201.677 1
 -1 0 14 2403.94 198.061 1
 -1 0 -14 2839.65 193.741 6
 1 0 -14 2618.24 190.112 6
 1 0 -15 56.4179 56.2721 6
 1 0 15 105.753 55.7394 1
 -1 0 -15 49.1827 49.0556 5
 -1 0 -15 88.007 51.9415 3
 1 -1 16 1086.97 139.066 1
 -1 1 15 2818.7 181.52 8
 1 1 -15 2718.59 190.269 6
 -1 -1 -15 3137.66 204.796 3
 1 -1 15 2491.1 197.487 1
 -1 1 14 3103.44 194.061 8
 1 -1 14 2873.72 203.292 1
 -1 -1 -14 3350.87 210.551 3
 -1 -1 -13 5857.34 271.884 3
 -1 1 13 6059.63 257.374 8
 1 -1 13 5955.43 288.433 1
 -1 1 13 5741.46 293.029 1
 1 -1 13 6618.3 302.069 7
 -1 -1 -13 6099.94 277.847 6
 -1 -1 -13 6316.67 293.15 5
 1 -1 12 5956.02 270.076 8
 -1 1 12 6433.93 258.489 8
 1 -1 12 4855.28 293.805 1
 -1 1 12 6062.17 291.036 1
 1 1 -12 5326.25 248.577 3
 -1 -1 -12 5254.36 255.232 3
 1 1 -12 4671.9 230.843 6
 -1 -1 -12 4992.39 241.069 6
 1 1 -11 5098.7 230.926 6
 -1 -1 -11 6643.86 283.98 5
 1 1 -11 5268.98 239.349 5
 1 -1 11 6178.47 243.441 8
 -1 1 11 5334.51 232.82 8
 -1 1 11 4959.22 256.72 7
 1 -1 11 6100.06 279.552 1
 1 -1 11 7648.2 299.717 7
 -1 -1 -10 17021.3 400.5 6
 -1 -1 -10 16198.8 430.797 5
 1 -1 10 13379.7 399.182 7
 1 -1 10 13248 353.798 8
 1 -1 10 12503.1 379.609 1
 -1 1 10 13554.6 388.538 1
 1 1 -10 13538.7 358.237 3
 1 1 -9 6756.57 245.054 6
 -1 -1 -9 6414.65 259.68 5
 -1 1 9 6285.93 240.305 8
 1 1 -9 6402.9 252.717 5
 -1 -1 -9 6065.15 217.5 6
 1 -1 9 6674.94 252.853 7
 -1 1 9 6496 252.387 7
 1 1 -9 6710.37 239.827 3
 -1 -1 -9 6393.59 256.833 3
 1 -1 9 6339.06 256.931 1
 -1 1 9 6619.09 254.714 1
 -1 1 8 23104.4 422.034 8
 1 -1 8 22443.3 397.883 8
 -1 -1 -8 23387.4 470.167 3
 1 1 -8 23773.8 413.19 3
 -1 -1 -8 27962.3 515.45 5
 1 -1 8 22391.4 446.128 7
 -1 1 8 29601.7 515.561 7
 1 1 -8 19989.8 403.471 6
 1 -1 8 23006.6 467.985 1
 -1 1 8 21964.4 437.035 1
 1 1 -8 23126.1 450.038 5
 -1 -1 -8 21682.9 380.114 6
 -1 1 7 25076.1 417.767 8
 1 -1 7 26474.8 403.327 8
 1 1 -7 25653.7 442.765 5
 -1 -1 -7 25459.9 383.565 6
 -1 1 7 23243.2 423.458 1
 1 1 -7 26733.4 446.527 6
 1 1 -7 23391.4 395.284 3
 -1 1 6 70506.2 684.109 8
 1 -1 6 66222.8 678.947 7
 -1 1 6 63383.8 658.861 7
 1 1 -6 67264.2 665.327 5
 -1 -1 -6 67739.9 575.823 6
 1 -1 6 71458.2 747.341 1
 -1 1 6 65933.7 657.096 1
 -1 -1 -6 72128.5 727.879 5
 1 -1 6 64478.6 658.119 4
 1 1 -6 69408.7 677.605 6
 -1 -1 -6 69986.5 749.055 3
 -1 1 5 51045.2 519.665 1
 1 -1 5 52627.2 468.848 8
 -1 1 5 54002.4 559.716 8
 1 1 -5 58619 570.06 6
 -1 -1 -5 45770.9 529.704 2
 -1 -1 -5 53337.5 470.432 6
 -1 -1 -5 51504.4 629.678 3
 1 1 -5 54264.5 491.554 3
 1 -1 5 48970.7 525.44 7
 -1 -1 -5 48576.8 556.33 5
 1 -1 5 52596.6 582.054 1
 1 -1 5 42515 489.808 4
 1 -1 4 263323 1166.82 4
 1 1 -4 245847 1154.47 6
 -1 1 4 254539 1173.08 8
 1 -1 4 261276 1178.47 7
 -1 1 4 242567 1133.11 7
 -1 1 4 260004 1116.69 1
 -1 -1 -4 233296 1216.63 2
 -1 -1 -4 276456 1212.21 5
 1 -1 4 272124 1303.81 1
 -1 -1 -4 269612 1340.94 3
 1 1 -4 270727 1051.58 3
 -1 -1 -3 173665 895.637 2
 1 1 -3 170422 854.722 6
 1 -1 3 168885 874.375 1
 1 1 -3 161961 683.153 3
 -1 1 3 161822 833.732 8
 -1 -1 -3 168160 960.661 3
 -1 1 3 171848 755.79 1
 1 -1 3 169357 814.771 7
 -1 1 3 176058 799.946 7
 1 -1 3 177319 871.973 4
 1 1 -3 162707 769.435 5
 -1 -1 -2 205580 891.519 2
 1 1 -2 206689 703.395 5
 -1 1 2 207471 707.809 1
 1 1 -2 179736 616.444 3
 -1 1 2 193355 806.414 8
 -1 1 2 185479 739.295 7
 1 1 -2 197993 818.949 6
 1 -1 2 206441 819.146 4
 -1 -1 -2 184019 952.7 3
 1 -1 2 204496 638.24 1
 -1 -1 -1 41128 383.64 3
 -1 1 1 35807.3 240.037 1
 -1 -1 -1 41625.5 355.055 2
 1 1 -1 36571 209.591 3
 1 1 -1 29689.8 253.814 6
 1 -1 1 36539.6 247.755 7
 1 -1 1 34300.4 277.864 4
 -1 -1 -1 41407.4 271.864 5
 -1 1 1 36308.2 273.136 8
 -1 -1 0 283471 674.267 5
 -1 1 0 264120 895.947 2
 1 -1 0 252842 811.687 6
 -1 -1 0 294655 1104.29 2
 1 -1 0 288483 865.26 4
 1 1 0 262996 765.484 6
 -1 -1 0 287164 1020.68 1
 -1 1 0 298981 789.25 8
 1 -1 0 286030 864.724 3
 1 1 0 300023 712.296 4
 -1 1 -1 43954.8 296.737 5
 1 -1 -1 43686.3 288.496 6
 -1 1 -1 42548.4 208.522 2
 1 1 1 38598.2 315.523 7
 1 1 1 45786.2 214.411 4
 -1 1 -1 40406.4 240.028 8
 -1 -1 1 42331.3 309.477 8
 1 1 1 45711 239.334 6
 -1 -1 1 45186.5 483.567 2
 1 -1 -1 40393.9 293.471 4
 1 -1 -1 40487.6 309.456 3
 -1 -1 1 42570.4 359.671 1
 1 1 2 189205 807.127 7
 1 1 2 203789 680.893 4
 -1 1 -2 183352 789.879 5
 1 -1 -2 185509 793.728 3
 -1 -1 2 192708 753.98 8
 -1 1 -2 206535 685.514 2
 1 -1 -2 194442 782.447 6
 -1 -1 2 186820 892.418 1
 -1 1 -3 183610 884.417 5
 -1 -1 3 179597 808.001 8
 -1 1 -3 172320 1048.69 3
 -1 -1 3 174160 957.102 1
 1 -1 -3 176291 880.807 3
 1 -1 -3 178549 828.96 6
 -1 -1 4 251327 1074.89 8
 1 -1 -4 285697 1139.71 6
 1 -1 -4 247260 1167.28 3
 -1 1 -4 294362 1205.15 5
 -1 -1 4 252454 1260.58 1
 -1 1 -4 249795 1311.75 3
 1 1 4 245488 1110.57 7
 1 1 4 274634 880.272 1
 1 -1 -5 59769.8 575.092 3
 -1 1 -5 60484 566.005 5
 -1 -1 5 63556.5 644.324 1
 1 1 5 62353.9 565.541 7
 -1 -1 6 64913.5 769.531 7
 1 1 6 67167.7 653.537 8
 -1 -1 6 72693.8 635.428 8
 1 -1 -6 65294.8 617.138 6
 -1 1 -6 77860.5 687.437 5
 1 -1 -6 86052 787.65 5
 -1 1 -6 68755.2 633.845 6
 -1 -1 6 71914.7 735.817 1
 1 1 6 69659.2 710.141 1
 -1 1 -6 64763.6 697.402 3
 1 -1 -6 62573.4 635.97 3
 1 1 6 71176.8 658.815 7
 1 -1 -7 28599.1 438.481 6
 1 1 7 29541.8 453.985 8
 -1 1 -7 28581.6 433.882 6
 -1 -1 7 30325.2 506.298 1
 1 1 7 29822.4 481.318 1
 -1 1 -7 29716.1 510.904 3
 1 -1 -8 18650.3 391.104 3
 -1 -1 8 18685.6 424.358 1
 1 1 8 18601.2 407.971 1
 -1 -1 8 18763 369.19 8
 1 -1 -8 18513.9 403.025 5
 1 1 8 18968 388.888 8
 -1 1 -8 17316.3 392.566 5
 1 1 8 17044.5 370.561 7
 1 1 9 8750.47 287.632 7
 1 -1 -9 7955.88 263.816 6
 1 1 9 8007.03 286.205 1
 -1 -1 9 7543 288.054 1
 -1 -1 9 7882.66 253.817 8
 1 -1 -9 9623.25 309.71 5
 -1 1 -9 7517.92 246.311 6
 1 1 9 7955.49 267.762 8
 -1 1 -9 8026.96 282.204 3
 1 -1 -9 7926.34 271.572 3
 -1 1 -9 6482.9 253.363 5
 1 1 10 11464.9 332.135 7
 1 1 10 10893.4 342.844 1
 -1 -1 10 10944.1 317.362 8
 1 1 10 11074.7 324.718 8
 -1 1 -10 11564.1 353.049 3
 1 -1 -10 11412.8 337.098 3
 -1 1 -10 11344.8 322.903 6
 1 -1 -11 6632.05 264.749 6
 -1 1 -11 7218.5 266.897 6
 1 1 11 5862.69 269.854 1
 -1 -1 11 5900.88 276.382 1
 1 -1 -11 6034.55 254.477 3
 -1 1 -11 6175.28 273.388 3
 1 1 11 7300.12 277.499 8
 -1 1 -11 8188.68 314.15 5
 1 1 11 7328.61 279.918 7
 -1 1 -12 6464.25 281.307 3
 1 -1 -12 6300.89 266.71 3
 -1 -1 12 6588.49 265.219 8
 -1 1 -12 5902.46 272.764 5
 1 1 12 6346.65 275.6 8
 -1 -1 12 6021.72 290.028 1
 1 1 12 5912.02 283.283 1
 1 -1 -12 6463.19 269.884 6
 -1 1 -12 7246.69 285.067 6
 1 -1 -13 5353.32 260.208 6
 -1 1 -13 5923.08 266.129 6
 -1 -1 13 5328.21 250.171 8
 1 1 13 5191.26 243.417 8
 -1 1 -13 5421.07 269.486 5
 -1 -1 13 5425.47 278.535 1
 1 1 13 5065.62 267.767 1
 1 1 13 4911.23 253.239 7
 1 -1 -13 5109.71 246.002 3
 1 1 14 2378.2 175.988 8
 1 1 14 2101.1 177.524 1
 -1 -1 14 2007.75 177.667 1
 -1 1 -14 2209.51 176.151 5
 1 -1 -14 2180.52 168.966 3
 -1 1 -14 2348.41 175.239 6
 1 -1 -15 2663.82 189.085 3
 1 1 15 2847.02 206.949 7
 -1 -1 15 2177.95 186.509 1
 -1 1 -15 2519.76 186.051 6
 -1 1 -15 2777.91 204.445 5
 1 -2 16 378.177 86.6341 1
 1 2 -16 735.873 106.037 6
 -1 -2 -16 525.732 90.4835 3
 -1 2 16 522.047 81.7122 8
 1 -2 15 2787.63 209.653 1
 -1 2 15 2426.1 169.205 8
 -1 -2 -15 2579.97 186.565 3
 1 2 -15 2935.44 187.97 6
 -1 2 14 674.693 91.9995 8
 1 2 -14 750.676 109.459 6
 -1 -2 -14 695.14 103.173 3
 -1 -2 -13 6904.79 295.59 3
 1 -2 13 8159.95 342.404 7
 1 -2 13 6619.87 303.418 1
 1 2 -13 7585.38 297.992 6
 -1 -2 -13 7791.26 327.78 5
 -1 2 13 7385.94 277.8 8
 -1 2 12 2017.52 147.215 8
 1 -2 12 2290.18 185.268 7
 -1 2 12 2194.45 179.551 7
 1 2 -12 1886.32 152.818 5
 -1 -2 -12 2553.36 187.983 5
 1 2 -11 32127.5 573.239 3
 -1 -2 -11 29590.6 588.523 3
 1 -2 11 32324.3 627.629 7
 -1 2 11 31425.6 619.074 7
 -1 2 11 27436.8 585.284 1
 1 -2 11 33394.5 657.417 1
 -1 2 11 36981.5 615.12 8
 -1 -2 -11 31851.7 581.358 6
 -1 -2 -11 33841.7 651.165 5
 1 2 -11 35461.9 643.066 5
 -1 -2 -10 11277.7 357.271 3
 1 2 -10 10486.7 314.085 3
 1 -2 10 10067.4 348.442 1
 -1 2 10 8898.63 315.675 1
 1 -2 10 10734.1 347.596 7
 1 -2 10 9469.41 300.519 8
 -1 2 10 7549.19 300.845 8
 -1 -2 -10 9752.85 339.548 5
 1 2 -10 9244.61 319.575 5
 1 2 -10 9668.3 306.4 6
 -1 -2 -10 8951.2 298.71 6
 -1 -2 -9 38700.1 644.843 3
 1 2 -9 38736.4 592.863 6
 1 -2 9 38874.6 657.325 7
 -1 2 9 35013.3 604.139 7
 1 2 -9 38440.8 616.123 5
 -1 -2 -9 36631.1 648.663 5
 1 -2 9 38948.3 540.74 8
 -1 2 9 39940.6 595.675 8
 1 -2 9 36779.6 639.777 1
 -1 2 9 37948.7 597.385 1
 1 2 -8 38309.7 528.958 3
 -1 -2 -8 43287.7 649.778 3
 -1 -2 -8 43876.4 538.63 6
 1 2 -8 37113.9 566.002 6
 -1 -2 -8 41603.3 660.159 5
 1 2 -8 40691.9 595.814 5
 -1 2 8 42365.9 603.871 7
 1 -2 8 42398.1 650.588 7
 -1 2 8 43400.2 605.605 8
 1 -2 8 46206.2 562.669 8
 -1 2 8 41696.9 587.343 1
 1 -2 8 42527.1 648.707 1
 1 -2 7 70769.3 639.948 8
 -1 2 7 69388.9 736.747 8
 1 2 -7 71810.2 739.247 6
 -1 -2 -7 68053.3 616.739 6
 1 2 -7 66091.1 700.401 5
 -1 2 7 65442.5 687.27 1
 1 -2 7 64162.8 765.06 1
 1 -2 7 73643.7 783.068 7
 -1 2 7 69863 715.484 7
 -1 -2 -7 65515.6 772.347 5
 -1 -2 -7 72319.1 813.366 3
 -1 2 6 96421.6 826.902 8
 1 -2 6 86301.6 629.863 8
 -1 -2 -6 82849.3 820.679 5
 1 -2 6 105657 934.9 1
 -1 2 6 88114.3 733.797 1
 1 2 -6 82519.5 770.22 6
 1 2 -6 90852.8 766.722 5
 -1 -2 -6 90381.6 640.528 6
 -1 -2 -6 79912.7 786.263 2
 1 -2 6 98520.7 849.106 7
 -1 2 6 97879.2 780.861 7
 1 -2 6 84779 766.033 4
 -1 -2 -6 95069.8 881.059 3
 1 2 -6 85409.3 662.366 3
 1 -2 5 84409.2 553.819 8
 -1 2 5 84859.3 734.639 8
 -1 -2 -5 83810.2 732.902 5
 -1 2 5 76006 611.965 1
 1 -2 5 83229.5 780.856 1
 1 -2 5 84994.9 696.763 4
 1 2 -5 76003.7 552.476 3
 -1 -2 -5 80125.2 744.172 2
 1 2 -5 77633.4 676.277 6
 -1 2 5 92491.9 670.911 7
 1 -2 5 84192.9 724.842 7
 -1 -2 -5 80295.9 541.168 6
 1 2 -5 80765.8 652.351 5
 1 -2 4 129026 597.563 8
 -1 2 4 128780 718.471 7
 1 2 -3 23131 306.038 6
 1 2 -3 21653.3 195.424 3
 1 -2 3 25160.9 327.871 7
 -1 2 3 23764.8 226.909 1
 1 -2 3 23551.8 322.564 4
 -1 -2 -3 23617.9 321.063 5
 -1 -2 -3 22920.6 363.507 3
 -1 2 3 23694.3 318.459 8
 1 -2 3 23075.7 337.671 1
 -1 -2 -2 270184 1019.22 5
 -1 -2 -2 273269 1180.97 2
 1 -2 2 251227 1045.57 4
 1 2 -2 244374 766.514 5
 1 2 -2 278305 1051.65 6
 1 2 -2 282556 671.439 3
 -1 2 2 262015 1066.39 8
 -1 -2 -2 280580 1185.08 3
 -1 2 2 301029 820.37 7
 -1 2 2 302329 725.125 1
 1 -2 2 258908 1105.87 1
 1 -2 1 2659.82 90.2269 4
 1 2 -1 2821.3 84.9851 6
 1 -2 1 2342.66 84.5562 1
 -1 -2 -1 2202.72 86.6149 3
 -1 2 1 3567.11 96.3775 8
 -1 -2 -1 3243.23 79.9532 5
 -1 -2 -1 2262.52 98.3575 2
 1 -2 1 2335.12 65.8516 7
 1 -2 0 106191 534.689 3
 -1 -2 0 109239 658.217 1
 -1 -2 0 108167 492.302 3
 1 2 0 99544.3 439.105 6
 -1 2 0 101971 427.808 8
 -1 -2 1 1514.05 83.7649 1
 1 2 1 1312.27 38.9602 6
 -1 2 -1 1496.07 38.6137 8
 1 -2 -1 1510.04 70.783 3
 -1 -2 2 288531 1200.56 1
 1 -2 -2 285813 1103.13 3
 -1 -2 2 283026 1020.93 8
 -1 -2 2 288992 1554.03 2
 -1 2 -2 279209 1008.58 5
 1 -2 -2 278515 1024.29 4
 1 -2 -3 21374.4 285.363 4
 1 2 3 23367.4 304.548 7
 1 -2 -3 23060.5 321.196 3
 -1 2 -3 21731.6 280.362 5
 -1 -2 3 23757.8 482.381 2
 1 -2 -4 140110 798.822 6
 -1 2 -4 124473 807.473 5
 -1 2 -4 129745 969.949 3
 -1 -2 4 138025 749.467 8
 1 2 4 139002 839.076 7
 1 2 5 87858.9 675.114 7
 -1 2 -5 79082.4 735.227 3
 -1 -2 5 84367.1 624.914 8
 -1 -2 5 84117.4 799.699 1
 -1 2 -5 82079.9 662.196 5
 1 2 5 82262.5 474.77 1
 1 2 6 81963.5 719.101 1
 1 2 6 91156.4 754.183 7
 -1 2 -6 84897.1 794.423 3
 1 -2 -6 98881 846.102 3
 -1 2 -6 97701.9 767.233 5
 -1 -2 6 96314.5 916.648 1
 -1 2 -6 91459.5 765.791 6
 1 2 6 91608.9 803.087 8
 1 -2 -6 103136 752.762 6
 -1 -2 7 64669.1 786.47 1
 -1 2 -7 62309.3 668.676 6
 -1 2 -7 66628.8 768.267 3
 -1 2 -7 59998.9 661.516 5
 -1 -2 7 66512.6 646.427 8
 1 2 7 66723.6 731.371 1
 -1 -2 8 43673 560.415 8
 1 2 8 41286.3 574.543 7
 1 2 8 42958.6 605.713 8
 -1 2 -8 41297.2 596.154 5
 -1 2 -8 42091.6 572.949 6
 -1 -2 8 42211.4 667.198 1
 -1 2 -8 41456.2 615.254 3
 -1 2 -9 34654.2 578.079 3
 -1 -2 9 37689 665.722 1
 -1 2 -9 39087.3 576.777 6
 -1 2 -9 37853.3 612.763 5
 1 -2 -9 34379.4 532.448 6
 -1 -2 9 39311.2 560.494 8
 1 2 10 9147.83 316.228 1
 -1 -2 10 8358.28 323.626 1
 1 -2 -10 8951.58 303.102 3
 -1 2 -10 8923.79 302.61 5
 -1 -2 10 9472.32 294.166 8
 1 -2 -10 8760.14 301.586 6
 -1 -2 11 33320.2 587.192 8
 1 -2 -11 31019 586.947 3
 -1 2 -11 31968.3 637.842 5
 -1 2 -11 34824.2 587.834 6
 1 2 11 33133.1 589.527 8
 1 2 11 28657.3 590.6 1
 -1 -2 11 29813.3 659.891 1
 -1 -2 12 1959.84 170.223 1
 1 2 12 1727.33 158.323 1
 -1 2 -12 2000.46 163.421 3
 -1 2 -12 2067.22 167.09 5
 1 2 12 2116.53 156.559 8
 -1 2 -12 2336.88 164.258 6
 1 -2 -12 1860.93 161.224 6
 -1 -2 12 1568.23 135.379 8
 1 -2 -12 1664.99 144.888 3
 1 2 13 6843.73 290.662 7
 -1 2 -13 6454.32 290.921 5
 1 2 13 6685.18 277.768 8
 -1 -2 13 7338.35 329.182 1
 1 -2 -13 6086.15 266.562 3
 -1 2 -14 532.076 94.503 5
 -1 -2 14 460.441 97.032 1
 -1 2 -14 811.79 107.201 6
 1 -2 -14 602.736 99.7774 3
 1 2 14 623.649 94.4366 8
 -1 -2 15 2589.62 196.395 1
 -1 2 -15 2448.28 186.274 5
 1 -2 -15 2135.81 167.335 3
 1 2 15 2195.21 182.757 7
 1 2 15 2305.99 174.987 8
 -1 -2 15 2048.17 285.507 2
 1 -2 -16 717.985 108.187 4
 1 -2 -16 807.489 110.112 3
 -1 -2 16 846.746 126.558 1
 -1 2 -16 451.878 89.4531 6
 -1 3 16 1142.68 115.222 8
 -1 -3 -16 1137.21 125.904 3
 1 3 -16 1123.87 120.214 6
 1 -3 16 1096.76 135.07 1
 -1 3 15 3492.84 196.754 8
 -1 -3 -15 3270.36 207.296 3
 1 -3 15 3325.16 222.847 1
 1 3 -15 3110.53 195.47 6
 -1 -3 -14 2241.99 175.922 3
 1 3 -14 2264.04 165.467 6
 1 -3 14 1772.83 167.42 1
 -1 3 13 8808.72 299.006 8
 -1 -3 -13 8895.61 332.62 3
 -1 3 12 2336.69 158.239 8
 -1 3 12 2178.27 179.907 7
 1 3 -12 1821.72 149.191 5
 -1 -3 -12 2241.27 175.64 5
 1 3 -12 2278.45 164.493 6
 1 -3 12 2385.01 185.791 1
 -1 -3 -11 16560.4 456.499 3
 1 3 -11 16658.4 419.73 6
 -1 3 11 16417.8 459.151 7
 1 -3 11 15432.4 453.784 1
 -1 -3 -11 15986.4 458.206 5
 -1 -3 -10 2705.11 179.818 3
 1 3 -10 2399.93 158.666 6
 1 -3 10 2527.1 184.599 1
 1 -3 10 2741.31 190.368 7
 -1 3 10 2450.79 155.31 8
 1 3 -10 2245.14 159.499 5
 -1 -3 -10 2447.31 179.694 5
 -1 3 10 2277.51 158.615 7
 -1 -3 -9 23184.9 437.673 6
 -1 3 9 22328.6 461.75 1
 -1 3 9 23030 474.992 7
 -1 3 8 3032.85 158.949 7
 1 -3 8 3053.3 182.962 7
 -1 -3 -8 3268.47 187.097 5
 1 3 -8 2792.84 140.196 3
 -1 -3 -8 3076.46 183.766 3
 1 -3 8 3029.39 135.237 8
 -1 3 8 3276.6 171.643 8
 1 3 -8 3290.24 170.549 6
 -1 -3 -8 3101.98 143.943 6
 1 -3 8 2821.07 177.298 1
 -1 3 8 2952.53 153.384 1
 1 -3 7 95595.1 876.822 4
 1 -3 7 80910.9 625.032 8
 1 -3 7 89652.8 927.319 7
 -1 3 7 79628.7 746.135 7
 1 3 -7 72521.7 739.541 5
 -1 -3 -7 83419 882.909 5
 -1 -3 -7 80198.7 871.362 3
 -1 -3 -7 81116.6 881.933 2
 -1 3 7 79710.7 819.242 8
 1 3 -7 78503.3 807.434 6
 -1 -3 -7 83860.3 694.177 6
 1 -3 7 77914 880.854 1
 -1 3 7 75180.7 717.112 1
 1 -3 6 3176.14 152.317 4
 1 3 -6 2389.56 123.903 5
 -1 -3 -6 2150.93 134.693 2
 -1 3 6 2632 140.58 8
 1 3 -6 2045.66 124.152 6
 -1 -3 -6 2777.69 108.574 6
 1 -3 6 2918.71 159.49 7
 -1 3 6 3025.3 130.36 7
 1 -3 6 2686.28 100.068 8
 -1 -3 -6 2759.22 156.073 5
 1 3 -6 2441.22 102.9 3
 -1 -3 -6 2494.11 148.508 3
 1 -3 6 2138.27 142.379 1
 -1 3 6 2282.56 112.036 1
 -1 3 5 120548 885.369 8
 -1 -3 -5 115938 597.635 6
 1 3 -5 96844.5 783.994 6
 -1 3 5 99058.1 710.455 7
 1 -3 5 126194 977.904 7
 -1 -3 -5 122472 964.909 5
 -1 3 5 129262 716.803 1
 1 -3 5 121630 981.515 1
 1 3 -5 103788 752.381 5
 1 -3 5 116905 590.425 8
 -1 -3 -5 101104 915.753 2
 1 -3 5 127016 897.328 4
 1 3 -5 105148 605.385 3
 -1 -3 -5 129129 1005.37 3
 1 -3 4 27901.6 402.525 4
 -1 -3 -4 29952.4 442.809 2
 -1 3 4 30816.5 412.994 8
 1 3 -4 26406.6 228.203 3
 -1 3 4 27079 264.204 1
 1 -3 4 27606.8 430.061 1
 -1 -3 -4 28201.4 438.642 3
 1 -3 4 25965.6 195.986 8
 1 3 -4 27491.7 310.295 5
 -1 -3 -4 29150.6 426.632 5
 1 3 -4 31636.9 404.145 6
 -1 -3 -4 26374.2 227.964 6
 -1 -3 -3 193316 1094.27 3
 -1 3 3 207741 608.92 1
 1 -3 3 227018 1189.6 1
 -1 -3 -3 217063 1079.26 5
 -1 -3 -3 200058 536.532 6
 1 3 -3 202520 1006.65 6
 1 -3 3 202497 1052.68 4
 1 -3 3 195311 1049.54 7
 -1 3 3 210513 1046.59 8
 1 3 -3 224712 787.583 5
 -1 3 2 209328 957.481 8
 -1 -3 -2 199784 1093.29 2
 1 3 -2 200204 588.885 5
 1 3 -2 193158 900.272 6
 -1 -3 -2 208514 931.436 5
 1 -3 2 204932 1042.71 1
 1 -3 2 204138 972.974 4
 -1 -3 -2 196039 994.623 3
 -1 -3 -1 501425 1507.36 3
 1 -3 1 448693 1529.75 4
 -1 -3 -1 484546 1728.45 2
 -1 -3 -1 469084 1331.74 5
 1 -3 0 43000.2 372.59 3
 -1 -3 0 39813.3 296.808 3
 1 -3 0 39814.4 353.378 4
 -1 3 0 43053 307.921 8
 1 3 0 41330.1 289.311 6
 1 -3 0 45622 311.66 1
 -1 -3 0 45574.1 463.54 1
 -1 -3 0 45050.3 474.593 2
 -1 3 -1 521204 1123.84 8
 -1 -3 1 435722 1849.75 2
 1 -3 -1 486268 1582.34 3
 1 3 1 494001 1579.92 7
 -1 -3 1 487987 1788.15 1
 1 -3 -1 550579 1561.24 4
 1 3 1 490814 1114.59 6
 -1 -3 2 204494 1266.55 2
 -1 -3 2 201143 1130.91 1
 1 3 2 203016 934.648 7
 -1 3 -3 204695 987.271 5
 -1 -3 4 23243.5 320.297 8
 -1 3 -4 22312.5 388.354 3
 -1 -3 4 26038.7 435.993 1
 1 -3 -4 24155.4 380.675 3
 1 -3 -4 24261.9 344.332 4
 1 -3 -4 23677 297.13 6
 -1 -3 4 25108.4 570.428 2
 -1 -3 5 121679 1377.3 2
 1 3 5 141878 923.384 7
 -1 3 -5 141721 999.581 3
 1 -3 -5 115000 780.271 6
 -1 3 -5 118037 831.946 5
 1 3 5 93121.3 530.492 1
 1 -3 -5 148048 1008.91 3
 -1 -3 5 125901 792.923 8
 -1 -3 5 134803 1076.89 1
 -1 -3 6 1583.76 95.7739 8
 -1 3 -6 1633.28 107.701 6
 1 3 6 1684.81 102.929 7
 1 3 6 1764.99 117.964 8
 -1 3 -6 1455.77 106.902 3
 1 -3 -6 1699.22 118.032 3
 1 -3 -6 1661.92 100.52 6
 -1 3 -6 1558.66 99.6012 5
 1 3 6 2002.14 87.7506 1
 -1 -3 6 1734 136.129 1
 1 3 7 85690.8 841.252 8
 1 3 7 93480.5 866.137 1
 -1 3 -7 86460.5 815.581 6
 -1 -3 7 84044.8 737.697 8
 -1 3 -7 76512.6 802.438 3
 1 -3 -7 86852.3 861.29 3
 1 -3 -7 92087.8 819.401 6
 -1 -3 7 75634.8 888.792 1
 1 3 8 3987.15 178.193 7
 1 3 8 4334.24 199.347 8
 1 3 8 4351.51 194.637 1
 -1 3 -8 3862.5 177.954 5
 1 -3 -8 4714.35 210.254 6
 -1 3 -8 4704.53 194.424 6
 1 -3 -8 4343.9 200.619 3
 -1 3 -8 4225.06 198.223 3
 -1 -3 8 4234.41 222.289 1
 -1 -3 8 3661.77 163.741 8
 1 3 9 24057.6 475.044 8
 -1 3 -9 24988 539.235 5
 1 3 9 21177.4 439.894 7
 -1 -3 9 21043.7 415.072 8
 -1 3 -9 17883.9 419.26 3
 1 -3 -9 22928 479.29 3
 1 3 9 22164.1 469.814 1
 -1 -3 10 3436.92 213.01 1
 1 3 10 3453.77 194.571 1
 1 3 10 3406.76 186.99 8
 -1 3 -10 3067.48 180.583 5
 1 -3 -10 3813.75 213.351 6
 1 -3 -10 3277.89 189.876 3
 -1 -3 10 3492.5 183.586 8
 -1 3 -10 3326.16 177.786 6
 1 3 10 3406.83 182.695 7
 1 -3 -11 13796.2 389.449 3
 -1 3 -11 12872.4 394.627 5
 1 3 11 14006.5 382.284 8
 1 3 11 14456.9 387.911 7
 -1 3 -12 2458.76 167.341 6
 1 -3 -12 2109.9 157.424 3
 -1 3 -12 2286.44 175.347 5
 -1 -3 13 8695.63 547.181 2
 1 -3 -13 7159.09 293.635 3
 -1 3 -13 7779.39 306.239 6
 1 3 13 7878.64 303.755 8
 1 3 13 8118.02 315.416 7
 -1 -3 13 8229.99 350.72 1
 -1 3 -13 7508.44 314.282 5
 -1 -3 14 2468.51 192.315 1
 -1 -3 14 1964.74 300.562 2
 1 -3 -15 2942.7 194.087 3
 -1 3 -15 2803.67 201.289 5
 1 3 15 2874.5 204.76 7
 -1 3 -15 3026.31 197.245 6
 1 -3 -15 3442.88 225.727 4
 -1 -3 15 2786.37 207.226 1
 1 3 15 3405.94 205.426 8
 -1 3 -16 949.141 119.227 5
 1 3 16 801.535 124.833 7
 1 3 16 1003.57 110.488 8
 -1 3 -16 929.383 113.502 6
 1 -3 -16 1035.58 122.956 3
 -1 4 16 794.297 104.126 8
 -1 -4 -16 739.107 101.766 3
 1 4 -16 558.314 92.6625 6
 1 -4 16 795.485 119.095 1
 1 4 -15 2317.1 168.356 6
 -1 -4 -15 2414.91 177.77 3
 -1 4 15 2457.67 164.746 8
 -1 -4 -14 3776.02 227.012 3
 -1 4 14 3659.04 203.27 8
 1 -4 14 3271.76 223.059 1
 1 -4 13 5416.8 284.158 1
 -1 -4 -13 5737.82 271.874 3
 1 4 -13 6133.96 262.319 6
 -1 -4 -12 4961.33 246.539 3
 -1 4 12 4821.35 263.648 7
 1 4 -12 4928.58 235.512 6
 1 -4 12 5360.86 273.735 1
 -1 4 12 5010.92 229.671 8
 -1 -4 -11 7150.3 298.831 3
 -1 4 11 6488.78 277.756 7
 1 4 -11 6536.02 265.392 6
 1 -4 11 6426.52 302.013 1
 1 4 -11 5869.91 264.902 5
 -1 -4 -11 5296.28 260.192 5
 -1 4 11 6120.99 251.111 8
 1 4 -10 14619.8 388.348 6
 -1 4 10 15155.5 386.118 8
 1 -4 10 15663.8 455.673 1
 -1 -4 -10 15288.6 456.592 5
 1 4 -10 13813.8 390.543 5
 -1 -4 -10 15846.8 443.304 3
 -1 4 10 14526.6 396.641 7
 1 4 -9 16149.3 401.288 6
 -1 4 9 15764 394.032 8
 1 -4 9 14793.4 463.429 7
 1 -4 9 13645.2 421.198 1
 -1 -4 -9 13202.2 405.488 5
 1 4 -9 13795.3 370.242 5
 -1 -4 -9 14081 395.865 3
 -1 4 9 13455 362.663 7
 1 4 -8 24647.3 474.396 6
 -1 4 8 25980 487.402 8
 1 -4 8 26750.5 562.376 1
 -1 -4 -8 25333.9 545.219 5
 -1 -4 -8 25515.9 523.039 3
 -1 4 7 25926.1 416.889 7
 -1 -4 -7 27015.4 536.181 5
 1 4 -7 28416.3 454.04 5
 1 -4 7 27682.1 483.006 4
 1 4 -7 28222.1 480.696 6
 -1 -4 -7 31996.9 545.31 2
 1 -4 7 28618.7 556.739 1
 -1 -4 -7 28645.7 538.12 3
 1 -4 7 29201.6 586.827 7
 -1 4 7 29759.7 500.224 8
 1 -4 6 51334.6 624.167 4
 1 4 -6 61963.9 659.114 5
 1 4 -6 55372.2 435.315 3
 -1 -4 -6 64210.5 769.979 3
 -1 4 6 51697 485.289 1
 1 -4 6 61547.4 771.693 1
 -1 -4 -6 54417 719.844 2
 -1 4 6 58791.6 675.585 8
 -1 4 6 53053.4 565.218 7
 -1 -4 -6 56817.1 454.868 6
 -1 -4 -5 101512 909.043 5
 1 4 -5 93366.3 788.64 6
 1 -4 5 90298 785.027 4
 1 -4 5 86473 960.708 2
 -1 -4 -5 91829.8 905.119 2
 -1 4 5 93918.4 538.49 1
 1 -4 5 89029.9 888.984 1
 1 4 -5 104966 473.03 3
 -1 -4 -5 99752.4 947.832 3
 -1 4 5 96603.9 820.419 8
 1 4 -5 92261.8 646.053 5
 -1 4 5 59376.4 546.878 7
 -1 -4 -5 92382.4 435.756 6
 1 -4 4 44743.2 528.648 4
 -1 -4 -4 40886.9 549.474 2
 1 4 -4 44643.9 506.512 6
 -1 -4 -4 42962.5 544.668 5
 1 4 -4 42922.8 378.871 5
 -1 -4 -4 43865.8 562.67 3
 -1 4 4 30487.4 331.498 7
 1 -4 4 37377.6 550.275 7
 -1 4 4 36641.9 500.492 8
 1 -4 4 37120.2 508.475 2
 -1 4 4 36714.5 248.107 1
 1 -4 4 43008 568.372 1
 -1 -4 -3 105602 787.93 5
 1 4 -3 100745 718.975 6
 1 -4 3 116073 821.395 4
 -1 -4 -3 93206.1 417.969 4
 -1 4 3 111915 797.667 8
 -1 -4 -3 102982 810.21 3
 -1 -4 -3 94130.5 817.306 2
 1 -4 3 102558 579.744 2
 -1 4 2 33409.8 399.118 8
 -1 4 2 33408.2 220.862 7
 1 -4 1 70862.5 318.713 2
 -1 -4 -1 78079.8 671.528 2
 -1 4 1 73278.5 313.316 7
 -1 -4 -1 72491.3 551.181 3
 1 -4 1 70017.5 487.751 3
 -1 4 1 77331.1 536.145 8
 1 -4 1 67002.6 548.098 4
 1 -4 1 79757.1 588.191 1
 1 4 -1 64014.5 489.006 6
 -1 -4 -1 73103.5 649.026 1
 1 4 0 39925.5 443.062 7
 -1 -4 0 35135.1 312.628 3
 1 4 0 39733.2 319.611 6
 -1 -4 0 40030.8 479.895 2
 1 -4 0 36687.4 385.506 3
 1 -4 0 42489.2 353.763 1
 -1 -4 1 78218.1 710.418 1
 1 -4 -1 74554.1 347.439 1
 -1 -4 1 75949.8 328.596 3
 1 -4 -1 76746.3 589.937 3
 -1 4 -1 79344.8 359.558 8
 1 -4 -1 92141 556.172 2
 -1 4 -1 68775.9 527.972 5
 1 4 1 80627 614.271 7
 1 4 1 75832.5 342.587 6
 -1 -4 1 86262.1 741.725 2
 -1 -4 2 45798.5 573.22 1
 1 -4 -2 35322.5 402.731 2
 1 -4 -2 45815.8 490.895 3
 -1 -4 2 42894.7 566.296 2
 1 -4 -2 33314.4 368.399 4
 1 4 2 36490.4 413.042 7
 -1 4 -2 35488.9 366.568 5
 1 4 3 105916 780.371 7
 -1 -4 3 106416 1026.85 2
 1 -4 -3 104342 801.694 3
 -1 -4 3 103834 898.886 1
 1 -4 -4 47201.7 556.747 3
 1 -4 -4 46056.4 489.562 4
 -1 -4 4 41609.1 603.314 1
 -1 -4 4 46565 462.939 8
 1 4 4 48506 510.397 7
 1 -4 -4 41480.8 378.32 6
 -1 -4 4 41684.1 731.51 2
 -1 -4 5 101938 756.734 8
 1 4 5 95363 768.664 7
 -1 -4 5 88031.1 1204.1 2
 -1 4 -5 103578 802.096 5
 1 -4 -5 83578.8 629.864 6
 -1 4 -5 73715.8 736.388 3
 1 -4 -5 95560.5 854.414 3
 1 -4 -5 90114.3 764.078 4
 -1 -4 5 98551.5 973.87 1
 -1 -4 6 58055.8 604.954 8
 1 4 6 59301.5 704.533 8
 1 -4 -6 60894.6 653.237 4
 1 4 6 63627.8 451.129 1
 1 -4 -6 64286.7 725.56 3
 -1 4 -6 59547.8 609.733 5
 -1 -4 6 58796 1074.25 2
 -1 4 -6 59943.6 666.02 6
 1 4 6 62308.3 622.646 7
 1 4 7 31732.4 472.648 7
 -1 -4 7 31021.9 816.305 2
 1 -4 -7 33254.8 526.2 4
 1 -4 -7 32949.5 537.987 3
 -1 4 -7 29906.7 484.571 3
 -1 -4 7 31051.5 583.96 1
 -1 4 -7 32739.8 510.724 6
 1 4 7 30107.4 476.558 1
 1 4 7 32498.9 532.858 8
 1 -4 -8 26058.3 488.954 4
 1 4 8 26136.5 509.655 8
 1 -4 -8 22570.9 432.63 6
 1 4 8 27380.4 463.955 7
 -1 -4 8 25756 773.753 2
 -1 -4 8 24668.5 540.165 1
 1 4 8 26312.9 478.252 1
 -1 4 -8 25284.6 475.892 3
 1 -4 -8 26963.7 510.514 3
 -1 4 -8 24456.4 453.182 5
 -1 4 -8 27417 480.316 6
 -1 -4 8 25086.1 453.583 8
 1 4 9 17175.2 414.101 8
 -1 -4 9 14856.3 654.526 2
 -1 4 -9 16353.7 386.385 6
 1 -4 -9 16304.5 413.326 4
 -1 4 -9 16092.9 398.438 5
 1 4 9 14081.9 356.526 7
 1 -4 -9 15171.1 397.107 3
 1 4 9 15412.4 390.695 1
 -1 -4 9 15082.7 435.06 1
 -1 4 -10 15000.8 380.214 6
 1 -4 -10 15234.5 412.057 3
 -1 4 -10 14699.7 401.392 5
 1 -4 -10 15743.9 425.436 4
 1 4 10 14243.1 411.812 7
 -1 -4 10 14899.6 456.65 1
 1 4 11 7888.59 288.798 8
 -1 -4 11 7206.22 321.979 1
 -1 -4 11 7631.7 486.344 2
 -1 4 -11 7015.76 268.928 6
 -1 4 -11 7569.17 301.531 5
 1 -4 -11 7928.29 299.993 3
 1 -4 -11 8481.87 325.593 4
 1 4 11 7549.33 287.135 7
 1 4 12 3939.29 226.125 7
 -1 -4 12 5003.93 413.44 2
 -1 4 -12 4570.37 225.803 6
 1 -4 -12 4607.31 237.141 3
 -1 -4 12 5944.42 293.214 1
 1 -4 -12 5347.87 266.58 4
 1 4 13 6223.7 275.783 7
 -1 4 -13 6391.92 274.883 6
 -1 4 -13 5732.13 280.197 5
 1 -4 -13 6831.58 313.838 4
 1 4 13 7541.86 301.16 8
 1 -4 -13 5768.7 267.019 3
 -1 -4 13 6515.41 482.209 2
 -1 -4 14 2585.56 198.11 1
 1 4 14 2783.61 193.093 7
 1 4 14 2946.32 183.777 8
 -1 4 -14 3323.76 200.997 6
 1 -4 -14 2769.78 189.673 3
 1 4 15 3015.97 202.463 8
 1 -4 -15 2938.6 194.048 3
 1 4 15 2791.16 201.962 7
 -1 4 -15 2945.85 190.045 6
 -1 -4 15 2698.17 207.135 1
 1 4 16 539.323 84.8017 8
 1 -4 -16 723.175 100.868 3
 -1 4 -16 803.579 106.358 6
 -1 -4 16 694.802 112.936 1
 1 4 16 553.766 115.849 7
 1 -5 15 613.156 108.826 1
 -1 5 15 713.768 90.9668 8
 1 -5 14 4369.55 258.687 1
 -1 5 14 4289.39 210.87 8
 -1 -5 -14 4103.29 230.117 3
 1 5 -14 4319.98 229.075 6
 -1 5 12 11737.7 366.228 8
 -1 -5 -12 11255.5 376.666 3
 -1 5 11 4568.42 237.433 7
 -1 5 11 4949.61 228.236 8
 -1 -5 -11 5473.72 258.261 3
 1 -5 11 4834.3 264.959 1
 1 5 -11 4085.48 215.671 6
 -1 5 10 22606.3 497.176 8
 -1 -5 -10 26128.4 558.062 3
 1 -5 10 23544.6 566.768 1
 1 5 -10 25163.1 516.883 6
 1 5 -9 18535.5 443.144 6
 1 5 -9 16726.3 409.345 5
 1 -5 9 16668.6 469.115 1
 -1 5 9 18132.4 423.989 7
 -1 -5 -9 17862.3 458.142 3
 1 5 -8 25010.3 462.032 5
 -1 5 8 23032.5 435.862 7
 1 -5 7 27117.8 495.019 4
 1 5 -7 21997.3 401.66 5
 -1 -5 -7 24001.5 502.677 5
 -1 -5 -7 25875 420.028 4
 1 5 -7 25696.4 474.503 6
 -1 5 7 27716.6 499.506 8
 -1 -5 -7 27787.2 532.914 3
 -1 -5 -7 25839 509.527 2
 1 -5 7 23115 628.661 2
 -1 5 7 28633.7 443.339 7
 1 -5 7 29748.1 585.147 1
 1 -5 6 15343.2 352.83 4
 1 -5 6 19250.6 499.674 2
 -1 -5 -6 18559.4 313.556 4
 1 5 -6 22038.8 414.232 6
 -1 -5 -6 18851.9 439.681 2
 -1 5 6 18941.2 329 7
 -1 5 6 20962.8 415.592 8
 -1 -5 -6 19526.2 424.626 5
 -1 -5 -6 19435.7 434.396 3
 1 -5 6 16747.4 444.974 1
 -1 -5 -5 85368.6 586.277 4
 1 -5 5 83016.7 848.146 2
 1 -5 4 37023.4 505.738 4
 -1 -5 -4 35093.1 534.3 2
 -1 -5 -4 32796.4 278.152 4
 -1 5 4 38295.7 525.364 8
 1 5 -4 35972.6 480.415 6
 -1 -5 -4 46456.2 615.582 3
 1 5 -4 26570.2 296.592 5
 1 -5 4 37123.2 578.516 1
 1 -5 4 37260.3 408.208 2
 -1 5 4 34445.5 342.747 7
 -1 5 3 116346 874.176 8
 1 5 -3 109932 804.594 6
 -1 -5 -3 114408 896.568 3
 1 -5 3 120746 974.867 1
 1 -5 3 113796 854.579 4
 1 5 -3 99127.6 471.6 5
 1 -5 3 102252 515.97 2
 -1 -5 -3 127824 1007.5 2
 1 -5 2 45512.2 535.622 1
 1 -5 2 33898.4 453.213 4
 1 5 -2 40700.1 205.824 5
 -1 5 2 30106.4 236.083 7
 -1 -5 -2 47400.5 575.86 2
 1 -5 2 46057.5 265.66 2
 1 -5 1 131492 772.312 3
 -1 5 1 158347 571.385 7
 -1 5 1 139411 825.053 8
 1 -5 1 138403 855.161 4
 1 -5 1 169890 628.779 2
 1 5 -1 147446 828.358 6
 -1 -5 -1 146389 1029.61 1
 -1 -5 -1 150962 855.021 3
 1 5 -1 123554 426.838 5
 1 -5 1 158950 949.002 1
 -1 -5 0 29205 441.997 2
 1 5 0 29107.1 301.323 6
 1 -5 0 27532.6 349.638 4
 -1 -5 0 26800 445.109 1
 -1 5 0 28200.6 310.657 8
 -1 -5 0 27536.1 299.563 3
 1 -5 0 27425.6 358.846 3
 -1 5 0 25814.4 260.82 7
 1 5 0 26228 387.135 7
 1 -5 -1 144310 641.979 1
 -1 -5 1 166358 1154.36 2
 -1 5 -1 138145 817.523 5
 -1 5 -1 158651 621.004 8
 -1 -5 1 144745 572.291 3
 1 -5 -1 164894 968.368 3
 1 5 1 151896 585.146 6
 1 -5 -1 155320 816.496 2
 1 -5 -1 143357 826.822 4
 1 5 1 137866 894.554 7
 1 -5 -2 50127.1 551.668 3
 1 5 2 44111.5 491.693 7
 -1 -5 2 46703.9 612.023 2
 -1 5 -2 48788.6 464.978 5
 -1 -5 2 47173.3 635.472 1
 1 -5 -2 51088.4 473.36 4
 1 -5 -2 47591.9 484.934 2
 -1 5 -3 110102 756.27 5
 -1 -5 3 111427 1050.52 2
 1 5 4 34928.4 454.88 7
 -1 -5 4 32630.4 552.831 1
 -1 5 -4 25971.9 369.468 5
 1 -5 -4 37822.5 453.642 4
 -1 -5 4 25067.9 383.369 8
 1 -5 -4 34147.8 503.651 3
 -1 5 -5 78705.6 777.5 3
 1 5 5 87204.9 750.551 7
 -1 -5 5 93246 993.01 1
 -1 5 -5 85578.2 812.942 6
 1 -5 -5 100026 836.888 4
 -1 -5 5 76845.7 689.535 8
 -1 -5 5 89449.5 1191.5 2
 1 -5 -5 103085 694.721 6
 -1 5 -5 71518.3 698.611 5
 1 -5 -5 91854.7 868.892 3
 -1 5 -6 18416.1 352.292 3
 1 -5 -6 18454.5 373.59 4
 1 5 6 23265.1 448.111 8
 1 5 6 19655.2 242.88 1
 1 -5 -6 20752.1 425.394 3
 -1 -5 6 18895.8 346.912 8
 1 5 6 24265 402.986 7
 1 -5 -6 20209.9 313.276 6
 -1 5 -6 21914.7 424.02 6
 -1 -5 6 18141 594.157 2
 -1 -5 6 20823.6 486.966 1
 -1 5 -6 16580.8 332.499 5
 1 5 7 27312.4 440.062 1
 -1 -5 7 26093.7 566.665 1
 -1 -5 7 25097.8 747.866 2
 1 -5 -7 27137 507.553 3
 1 5 7 27708.7 449.437 7
 -1 5 -7 29595.2 498.028 6
 1 5 7 27919.2 510.798 8
 1 -5 -7 26550.4 484.306 4
 1 -5 -8 25657.9 502.149 4
 1 5 8 29781 489.292 7
 -1 -5 8 22756.5 767.812 2
 -1 5 -8 32363.9 518.576 5
 -1 5 -9 16337.2 407.493 5
 -1 -5 9 17479.9 490.632 1
 -1 -5 9 15754.5 673.722 2
 1 -5 -9 18319.1 438.139 3
 1 5 9 18915.2 445.19 8
 1 5 9 19422.4 422.881 7
 1 -5 -9 15415.9 415.543 4
 -1 5 -9 18260.9 419.822 6
 -1 5 -10 19423 471.165 5
 -1 -5 10 22917.5 573.075 1
 -1 -5 10 21174.9 812.509 2
 1 -5 -10 24611.5 517.216 3
 1 5 10 25291.6 522.596 8
 1 5 10 19293 437.593 7
 1 -5 -10 26148.1 575.614 4
 -1 5 -10 22574.2 473.346 6
 -1 5 -11 4229.12 226.593 5
 -1 -5 11 4380.16 257.463 1
 1 -5 -11 4584.01 235.676 3
 -1 -5 11 4474.2 392.33 2
 -1 5 -11 4423.45 223.594 6
 1 5 11 4599.78 228.403 8
 1 5 11 3418.65 199.358 7
 1 -5 -11 5516.68 276.631 4
 -1 -5 12 10360.5 388.241 1
 1 -5 -12 10988.7 356.921 3
 1 5 12 10194.7 343.135 8
 1 5 13 1307.49 131.572 7
 -1 -5 14 5145.33 285.471 1
 -1 5 -14 4184.18 228.025 6
 1 5 14 3808.31 209.802 8
 1 -5 -14 3727.31 218.565 3
 1 5 14 4869.11 258.636 7
 -1 5 -15 591.395 94.3401 6
 1 5 15 507.716 90.2547 8
 1 -5 -15 630.323 101.758 3
 -1 -5 15 513.451 101.845 1
 1 5 16 931.716 113.848 8
 -1 6 15 293.54 64.2981 8
 1 -6 15 238.424 83.2885 1
 -1 -6 -15 251.169 73.2636 3
 -1 6 14 5695.65 243.684 8
 1 6 -14 5984.37 266.907 6
 -1 -6 -14 6197.51 278.932 3
 -1 -6 -13 205.798 67.872 3
 1 -6 13 213.707 81.1004 1
 1 6 -13 263.927 69.6208 6
 -1 6 13 165.555 51.6892 8
 1 6 -12 12279.2 373.587 6
 1 -6 12 11267.6 416.131 1
 -1 6 11 1093.56 112.7 8
 1 -6 11 844.301 122.416 1
 1 6 -11 949.33 109.747 6
 -1 -6 -11 1185.9 131.564 3
 -1 6 9 2829 178.129 8
 1 -6 9 2752.48 199.799 1
 1 6 -9 2439.12 165.676 6
 -1 -6 -9 3025.57 198.116 3
 -1 6 8 5730.48 241.946 8
 1 -6 8 5682.33 273.072 1
 1 6 -8 5213.98 231.134 6
 -1 6 7 12137.2 341.937 8
 -1 -6 -7 12727.7 366.639 2
 1 -6 7 12083 344.048 4
 -1 -6 -7 12743.9 377.191 3
 1 -6 7 12366.1 391.591 1
 1 -6 6 6063.88 266.774 1
 -1 -6 -6 5837.98 251.946 2
 -1 6 6 5789.89 228.541 8
 1 -6 6 5694.92 222.733 4
 -1 -6 -5 18672 434.511 2
 -1 6 5 19707.3 398.276 8
 -1 6 5 19314.2 294.031 7
 1 -6 5 19260.4 449.5 1
 1 6 -5 19469.3 390.034 6
 -1 -6 -4 4175.01 192.694 3
 -1 6 4 3102.97 105.817 7
 1 -6 4 2994.63 155.878 4
 1 -6 4 3883.35 198.987 1
 1 -6 3 81167.3 879.911 1
 -1 6 3 84588 783.548 8
 1 6 -3 86202.3 750.043 6
 -1 -6 -3 91067.3 901.714 2
 1 -6 3 86271 808.813 4
 -1 -6 -3 92132.6 837.968 3
 -1 6 2 6866.4 123.15 7
 -1 -6 -2 6996.9 214.088 3
 -1 6 2 6702.64 204.746 8
 1 -6 2 6862.1 119.682 2
 -1 -6 -2 6392.93 229.684 2
 1 -6 2 7091.84 233.326 1
 1 -6 1 101021 777.26 4
 1 6 -1 97081.2 411.63 5
 -1 -6 -1 90106.2 703.31 3
 -1 -6 -1 97096.3 886.961 1
 -1 6 1 107385 526.717 7
 1 -6 1 91049.7 768.633 1
 -1 6 1 95602.3 713.342 8
 1 -6 1 98268.2 703.467 3
 1 6 -1 103675 721.441 6
 -1 -6 -1 78914 836.935 2
 1 -6 1 105081 583.807 2
 1 -6 0 265.638 44.7055 1
 1 -6 0 225.578 33.0103 2
 -1 6 0 253.488 36.9412 8
 1 6 0 240.299 47.2892 7
 1 6 0 270.48 36.6667 6
 1 6 0 213.462 25.9593 5
 -1 -6 0 264.877 38.3692 3
 -1 -6 0 152.804 45.0643 2
 1 6 1 98759.2 788.728 7
 1 -6 -1 94444.5 789.149 3
 -1 -6 1 86679.9 505.449 3
 1 -6 -1 119593 770.769 2
 1 6 1 99589.9 494.405 6
 1 -6 -1 92888.6 713.024 4
 -1 -6 1 103275 970.374 1
 1 -6 -1 108424 623.898 1
 -1 6 -1 76264 641.127 5
 1 -6 -2 6095.68 203.935 3
 1 6 2 4366 168.218 7
 -1 -6 2 6632.44 255.304 1
 -1 6 -2 4850.79 156.039 5
 1 -6 -2 5466.58 169.71 4
 1 6 3 88357.2 759.006 7
 1 -6 -3 90847.7 833.563 3
 -1 -6 3 88184.7 998.885 1
 -1 6 -4 6050.19 185.731 5
 -1 -6 4 6491.6 281.512 2
 1 -6 -5 14448.4 339.922 4
 -1 -6 5 18567.6 520.1 2
 1 6 5 18053.4 342.753 7
 1 6 5 21169.6 431.901 8
 -1 -6 5 21467.6 497.339 1
 1 -6 -5 21594.8 442.643 3
 -1 6 -5 15770.3 331.715 5
 -1 6 -6 5627.28 221.772 6
 1 -6 -6 6262.34 217.424 4
 -1 -6 6 5980.5 269.042 1
 1 6 6 5995.54 240.708 8
 1 -6 -6 5550.81 230.062 3
 -1 -6 6 4899.95 300.187 2
 -1 6 -6 4465.59 180.062 5
 -1 -6 7 12411.7 394.148 1
 1 6 7 12405.3 311.86 7
 -1 6 -7 12503.4 335.624 6
 1 -6 -7 12256.9 336.496 4
 -1 6 -7 12137.8 309.579 5
 -1 6 -8 5901.37 229.493 5
 -1 -6 8 7234.69 316.156 1
 -1 -6 8 5647.3 381.294 2
 1 -6 -8 6610.74 269.152 3
 1 6 8 6186.46 231.34 7
 1 6 8 6669.26 268.929 8
 1 -6 -8 6142.42 251.64 4
 -1 6 -8 6901.26 259.589 6
 1 -6 -9 3708.65 206.556 3
 -1 -6 9 2913.02 290.942 2
 -1 -6 9 3858.92 240.812 1
 1 6 9 3903.1 207.517 8
 -1 6 -9 3047.08 179.973 5
 -1 6 -9 3736.47 195.867 6
 1 6 10 13171.5 367.173 7
 -1 6 -10 10773.4 355.5 5
 1 6 11 799.07 102.496 7
 -1 -6 11 990.246 126.262 1
 1 6 11 1167.85 117.601 8
 1 -6 -11 894.37 110.819 3
 -1 6 -11 828.417 103.95 6
 1 -6 -12 12810.1 397.546 3
 -1 -6 12 12727 438.252 1
 1 6 12 12132.5 376.487 8
 -1 6 -13 226.022 64.2862 6
 1 6 13 181.843 57.6964 8
 -1 -6 13 170.725 71.6297 1
 1 -6 -13 158.821 62.9792 3
 -1 6 -14 6799.73 284.549 6
 1 6 14 6365.73 267.46 8
 1 -6 -14 6167.55 279.936 3
 -1 -6 14 6154.63 313.579 1
 -1 6 -15 210.609 62.4332 6
 -1 -6 15 275.864 82.9019 1
 1 6 15 276.019 67.2018 8
 1 -7 15 499.678 97.5115 1
 1 7 -15 333.055 73.2834 6
 -1 -7 -15 464.667 87.3926 3
 -1 7 15 474.272 78.2123 8
 -1 7 14 1736.34 137.087 8
 1 -7 14 1774.57 173.333 1
 1 7 -14 2018.47 156.627 6
 -1 -7 -14 1787.35 155.004 3
 -1 7 13 1286.4 121.641 8
 1 -7 13 1255.23 150.138 1
 -1 -7 -13 1685.52 151.594 3
 1 7 -13 1509.46 135.869 6
 -1 7 12 7117.1 295.651 8
 1 -7 12 7077.36 340.664 1
 1 7 -12 6646.66 279.224 6
 -1 -7 -12 7911.3 319.988 3
 1 -7 11 3603.28 240.647 1
 -1 -7 -11 3004.57 201.098 3
 1 7 -11 3103.54 192.209 6
 -1 7 11 2891.26 179.523 8
 -1 -7 -10 16448.9 458.214 3
 1 7 -10 15310.1 422.935 6
 -1 7 10 15928.7 421.658 8
 1 -7 9 9549.72 380.796 1
 -1 -7 -9 10692 370.018 3
 1 7 -9 10645 344.155 6
 -1 7 9 10069 336.572 8
 -1 -7 -8 53872 800.294 3
 1 -7 8 54645.5 901.697 1
 1 -7 7 23310 576.742 1
 -1 -7 -7 23472.6 508.497 2
 1 -7 6 50819.6 708.407 4
 -1 -7 -6 76729.6 911.888 3
 1 -7 6 90578 1096.77 1
 -1 7 6 71244.3 840.046 8
 -1 -7 -6 58221.9 850.862 2
 1 7 -6 103430 991.492 6
 1 -7 5 31584.4 623.88 1
 -1 7 5 32883.1 544.354 8
 1 7 -5 28487.3 509.582 6
 -1 -7 -5 25705.1 531.232 2
 -1 -7 -5 37276.3 612.795 3
 1 -7 5 27440.7 481.888 4
 1 -7 4 52790 770.038 1
 -1 7 4 64714.7 734.233 8
 1 7 -4 58581 691.215 6
 -1 -7 -4 52283.5 736.325 2
 -1 -7 -4 66416.5 794.256 3
 1 -7 4 54593.8 700.383 4
 -1 7 3 28277.9 469.51 8
 1 -7 3 27738.6 486.064 4
 1 -7 2 98091.8 935.099 1
 -1 -7 -2 87946.1 918.631 2
 -1 7 2 91606.8 812.482 8
 1 -7 2 98229.8 864.609 4
 1 7 -2 94693 822.711 6
 -1 -7 -2 93019.2 830.741 3
 -1 7 1 4058.82 158.543 8
 -1 -7 -1 3845.93 186.786 2
 -1 -7 0 55986.6 720.854 2
 -1 -7 0 76003.9 901.993 1
 1 -7 0 66582.7 666.242 1
 1 -7 0 61330.7 613.59 3
 -1 -7 0 64787.7 556.193 3
 1 -7 0 57132 573.996 2
 -1 7 0 71456.6 664.889 5
 1 7 0 71253.5 569.346 6
 -1 7 0 74624.1 625.855 8
 1 7 0 64535.8 727.399 7
 1 -7 -1 3806.67 147.414 2
 1 -7 -1 4267.77 179.689 3
 -1 -7 1 3917.03 212.684 1
 -1 7 -1 3909.03 148.386 5
 1 -7 -2 104833 846.625 2
 1 7 2 99525.3 837.535 7
 -1 7 -2 91998.6 722.252 5
 -1 -7 2 97205 957.418 2
 1 -7 -2 103854 920.722 3
 -1 -7 2 99798.2 1074.51 1
 1 7 3 24714.2 420.055 7
 -1 -7 3 23919.2 504.763 2
 1 7 4 64636 674.002 7
 -1 7 -4 66420 742.199 6
 -1 -7 4 66607.5 890.253 2
 -1 -7 4 67399.6 938.608 1
 1 -7 -4 64482.3 769.898 3
 1 -7 -5 32053 502.603 4
 -1 -7 5 38291 749.221 2
 1 7 5 36114.7 513.045 7
 1 7 5 29460.2 552.778 8
 -1 7 -5 39288.6 589.435 6
 -1 7 -5 30674.9 470.845 5
 -1 -7 5 30280 648.202 1
 1 -7 -5 33778.6 577.478 3
 -1 -7 6 71847.2 1093.46 2
 -1 7 -6 72020.6 819.802 6
 -1 -7 6 75141.4 1028.26 1
 1 7 6 75005.8 886.502 8
 1 7 6 71880.3 780.95 7
 1 -7 -6 75179.1 894.429 3
 1 7 7 25371.8 458.171 7
 1 -7 -7 25526.4 531.859 3
 -1 -7 7 26251.1 609.788 1
 1 7 7 25128.2 524.018 8
 1 7 8 46119.5 651.46 7
 -1 7 -8 48197 704.814 6
 1 -7 -8 47069.7 738.365 3
 1 7 8 48163 737.206 8
 1 7 9 10380.6 346.252 8
 -1 -7 9 9763.8 395.843 1
 -1 7 -9 10782.2 332.67 6
 1 -7 -9 10692.3 359.244 3
 1 7 10 15162.1 421.024 8
 -1 7 -10 14650.8 399.639 6
 1 -7 -10 14049.4 422.545 3
 1 7 11 3043.99 191.039 8
 1 -7 -11 3197.47 204.305 3
 -1 7 -11 2954.35 188.195 6
 -1 -7 12 6561.22 334.928 1
 1 7 12 6349.51 278.171 8
 1 -7 -12 6347.97 287.044 3
 -1 -7 13 1433.61 159.379 1
 1 7 13 1282.07 136.634 8
 1 -7 -13 1417.13 142.453 3
 -1 7 -13 1638.94 149.74 6
 -1 -7 14 933.519 138.41 1
 -1 7 -14 1191.99 127.463 6
 1 7 14 1329.7 128.682 8
 1 -7 -14 1599.07 145.311 3
 1 7 15 435.58 81.1671 8
 -1 7 -15 613.094 93.2069 6
 1 -7 -15 555.262 94.5344 3
 -1 -7 15 555.825 110.827 1
 -1 -8 -14 2952.95 198.321 3
 -1 8 14 2556.71 165.222 8
 1 8 -14 2610.15 175.354 6
 -1 -8 -12 3541.11 217.807 3
 -1 8 12 3804.06 205.75 8
 1 8 -12 3745.22 212.529 6
 1 -8 12 3033.62 231.535 1
 1 -8 11 2893.15 222.568 1
 -1 8 10 2513.48 171.769 8
 1 8 -10 2250.84 167.366 6
 1 8 -9 4063.26 219.469 6
 1 -8 9 4003.87 261.557 1
 1 -8 8 2849.55 221.322 1
 -1 -8 -8 2906.75 196.775 3
 -1 8 8 2911.03 185.051 8
 1 8 -8 3103.35 193.1 6
 -1 8 7 2454.44 167.405 8
 1 -8 7 2042.24 183.644 1
 -1 -8 -7 2414.96 175.095 3
 -1 -8 -7 1871.92 148.737 2
 1 -8 7 2484.42 167.375 4
 1 8 -7 2532.17 175.36 6
 -1 -8 -6 1913.5 154.758 2
 -1 8 6 1981.44 149.359 8
 1 8 -6 2140.11 156.607 6
 -1 -8 -6 2243.93 166.516 3
 -1 -8 -5 7397.74 293.263 2
 -1 -8 -5 7564.81 289.2 3
 1 8 -5 7658.88 282.327 6
 1 -8 5 7213.23 263.794 4
 1 -8 5 7488.02 324.198 1
 -1 8 5 7471.33 276.09 8
 -1 -8 -4 6738.21 279.71 2
 -1 -8 -4 6530.95 257.41 3
 1 -8 4 6625.63 291.095 1
 1 8 -4 6537.78 252.002 6
 -1 8 4 6816.89 254.075 8
 -1 8 3 13979.1 347.449 8
 -1 -8 -3 10851 340.866 2
 1 -8 2 9487.15 327.805 1
 -1 8 2 11016.6 298.555 8
 1 8 -2 9945.68 281.255 6
 -1 -8 -2 9080.06 307.098 2
 1 -8 2 9922.39 299.15 4
 -1 -8 -2 10928.2 300.099 3
 -1 -8 -1 31879.8 482.488 3
 1 8 -1 29004.4 438 6
 1 8 -1 32168.2 559.163 7
 -1 8 1 31145.9 486.001 8
 1 -8 1 30356.2 431.041 3
 -1 -8 -1 32861.7 581.408 2
 1 -8 1 30898.5 548.941 1
 1 -8 0 29783 458.115 3
 -1 -8 0 31239.2 572.546 2
 1 8 0 34558 570.752 7
 -1 8 0 31388.1 469.42 5
 -1 8 0 32934.5 458.184 6
 -1 -8 0 31897.5 620.121 1
 1 -8 -1 32092.1 514.822 3
 -1 8 -1 34888.8 486.788 5
 -1 -8 1 35447.3 670.202 1
 -1 -8 1 37173.7 622.172 2
 -1 8 -1 37016 513.481 6
 1 -8 -1 31843.5 460.609 4
 1 8 1 32609.6 566.175 7
 1 8 2 10278.6 283.189 7
 1 -8 -2 11463.6 302.566 2
 1 -8 -2 6486.28 220.725 4
 -1 8 -2 9019.06 267.975 6
 -1 8 -2 6829.46 206.675 5
 -1 -8 2 8777.46 301.945 2
 -1 8 -3 18439.6 407.336 6
 1 8 3 13329.2 344.81 7
 -1 -8 3 15660.5 474.752 1
 -1 -8 3 16357.6 418.397 2
 1 -8 -3 15525.5 385.1 3
 -1 -8 4 4846.21 269.24 1
 1 -8 -4 4382.49 210.219 3
 -1 8 -4 4436.5 211.05 6
 1 8 4 4856.23 232.521 8
 1 8 5 9011.56 315.612 8
 -1 8 -5 9361.22 302.661 6
 1 -8 -5 9823.85 334.416 3
 -1 -8 5 9742.67 383.62 1
 1 8 6 1012.91 112.66 8
 -1 8 -6 932.039 105.204 6
 1 -8 -6 1086.86 116.056 3
 -1 -8 6 1099.43 141.647 1
 -1 8 -7 2906.49 183.734 6
 1 8 7 2935.65 190.037 8
 1 8 8 4511.06 235.701 8
 -1 8 -8 4472.77 217.324 6
 -1 -8 8 4255.9 268.709 1
 1 -8 -9 3593.12 214.337 3
 1 8 9 3611.21 210.464 8
 -1 -8 9 4007.34 266.354 1
 1 8 10 2488.02 177.139 8
 -1 -8 10 2989.38 229.463 1
 -1 8 -10 2768.48 178.45 6
 1 -8 -10 2581.98 188.779 3
 1 -8 -12 3655.52 216.924 3
 -1 -8 12 3481.47 251.843 1
 1 8 12 4009.4 221.934 8
 -1 8 -12 4075.66 227.657 6
 1 -8 -14 2391.75 189.45 3
 -1 -8 14 2443.99 210.528 1
 1 8 14 2672.04 174.722 8
 -1 -9 -13 860.946 119.645 3
 -1 9 13 706.361 95.2243 8
 1 -9 13 841.676 127.393 1
 1 9 -12 2373.14 170.595 6
 1 -9 12 2008.79 185.235 1
 -1 9 12 2377.14 167.16 8
 1 -9 11 4514.52 274.573 1
 -1 -9 -11 5083.95 265.068 3
 -1 -9 -10 7119.71 314.087 3
 1 -9 10 7462.8 350.681 1
 1 9 -10 7302.25 304.525 6
 -1 9 10 7330.26 289.218 8
 -1 -9 -9 16314.9 469.433 3
 1 -9 9 15763.3 518.475 1
 -1 9 9 15313.1 426.542 8
 -1 9 8 13232.7 397.852 8
 1 9 -7 27989.8 585.179 6
 -1 -9 -7 28562.1 601.495 3
 1 -9 7 27086.8 655.832 1
 -1 -9 -7 25231.6 575.01 2
 -1 9 7 26418.4 565.215 8
 -1 9 6 24447.7 533.83 8
 1 9 -6 26585.1 561.739 6
 -1 -9 -6 25238.9 552.492 3
 1 -9 6 22416.4 594.02 1
 1 -9 6 25351.3 525.291 4
 -1 -9 -6 28787.2 588.835 2
 -1 9 5 39991.5 665.002 8
 -1 -9 -5 37208.3 687.239 2
 -1 -9 -4 27666.9 560.639 3
 -1 9 4 28417.3 554.362 8
 1 9 -4 27654.4 555.199 6
 -1 -9 -3 31055.6 566.266 3
 -1 9 3 32054.2 567.142 8
 1 9 -3 33381.8 567.642 6
 -1 -9 -3 32549.3 621.395 2
 -1 -9 -2 9965.8 314.979 3
 1 -9 2 9258.44 295.061 4
 -1 9 2 10770.2 316.029 8
 1 -9 2 9941.52 352.083 1
 1 9 -2 10608 359.505 7
 1 -9 1 20885.3 433.262 4
 -1 -9 -1 22575.9 503.118 2
 1 9 0 17552.7 415.684 7
 -1 -9 0 18479.9 497.231 1
 -1 -9 1 23004.8 510.047 2
 -1 -9 2 10551.1 400.54 1
 1 -9 -2 10919.7 337.48 3
 1 9 2 13751.9 375.61 8
 -1 9 -2 13884.7 352.71 6
 -1 -9 3 26777 662.838 1
 1 -9 -3 26462.2 538.132 3
 1 9 3 27899.2 549.038 8
 -1 9 -3 27255.8 511.763 6
 -1 -9 4 31653.5 728.275 1
 1 -9 -4 32861.6 609.664 3
 1 9 4 31613.2 599.101 8
 -1 -9 5 34005 762.38 1
 1 -9 -5 36056.9 647.363 3
 1 9 5 33279 623.589 8
 -1 9 -5 36632.9 626.4 6
 -1 -9 6 25774.2 672.584 1
 1 9 6 26614.2 574.993 8
 -1 9 -6 27777.1 559.182 6
 -1 -9 7 24684.8 668.815 1
 1 -9 -7 26877.1 578.978 3
 1 9 7 25457.6 570.8 8
 -1 9 -7 26016.7 532.522 6
 -1 -9 8 13569.6 500.763 1
 1 -9 -8 15396.2 450.797 3
 1 9 8 13667 412.774 8
 -1 9 -8 16532.9 437.521 6
 -1 -9 9 15005.8 530.378 1
 1 9 9 14174.2 420.467 8
 -1 9 -9 13852.2 408.484 6
 1 -9 -9 15072.3 442.481 3
 1 -9 -10 7621.48 320.197 3
 -1 9 -10 7196.58 293.89 6
 1 9 10 7247.66 294.111 8
 1 -9 -11 4629.4 252.237 3
 1 9 11 4865.63 246.348 8
 -1 -9 11 5139.59 308.395 1
 1 -9 -12 2045.78 172.691 3
 -1 9 -12 2298.23 176.886 6
 1 9 12 2414.26 174.681 8
 -1 -9 12 2130.4 205.551 1
 1 -9 -13 986.109 121.331 3
 -1 -9 13 967.088 143.343 1
 -1 9 -13 893.81 113.906 6
 1 9 13 951.344 110.125 8
 -1 -10 -12 489.718 93.3981 3
 1 10 -12 330.619 75.5766 6
 -1 10 12 399.274 77.4892 8
 1 -10 12 430.622 103.074 1
 -1 -10 -11 3871.47 240.835 3
 1 10 -11 4371.91 234.462 6
 -1 10 11 3845.92 216.043 8
 1 -10 11 3464.11 258.364 1
 -1 -10 -10 621.763 105.515 3
 1 10 -10 715.398 104.646 6
 -1 10 10 363.817 89.0954 8
 -1 -10 -9 1797.69 169.262 3
 -1 10 9 1517.55 138.672 8
 1 10 -9 1859.83 159.769 6
 -1 -10 -8 3213.88 219.833 3
 1 -10 8 3350.73 254.929 1
 -1 10 8 3074.93 195.214 8
 1 10 -8 3193.34 210.54 6
 -1 10 7 1099.93 122.566 8
 -1 -10 -6 1522.78 141.584 2
 -1 -10 -6 1496.9 148.243 3
 1 -10 6 1399.33 168.8 1
 -1 10 6 1558.42 144.715 8
 1 10 -6 1910.4 159.671 6
 -1 -10 -5 1602 150.035 2
 -1 -10 -5 1731.66 155.779 3
 1 -10 5 1714.24 149.121 4
 1 -10 5 1808.87 198.615 1
 -1 10 5 1686.3 147.024 8
 1 10 -5 1961.82 160.975 6
 -1 -10 -4 5948.37 274.872 3
 1 -10 4 5982.85 321.217 1
 -1 10 4 6389.15 274.11 8
 -1 -10 -4 5326.23 273.169 2
 -1 -10 -3 3404.12 217.569 2
 1 -10 3 5738.44 241.159 4
 -1 -10 -2 12090.5 399.572 2
 -1 -10 -1 1729.46 151.732 2
 -1 -10 2 11704.3 453.219 1
 1 -10 -2 10771.8 356.832 3
 1 10 2 11660 371.05 8
 -1 -10 3 4104.43 273.477 1
 1 10 3 4701.77 237.505 8
 1 -10 -3 4107.68 226.568 3
 1 10 4 5816.52 272.17 8
 -1 10 -4 6219.65 268.756 6
 -1 -10 5 2175.94 213.232 1
 1 10 5 2227.53 171.662 8
 1 -10 -5 2342.58 179.89 3
 -1 10 -5 2584.52 174.812 6
 -1 -10 6 891.001 144.556 1
 1 10 6 1006.46 123.478 8
 1 -10 -6 1088.93 125.852 3
 -1 10 -6 903.684 114.143 6
 -1 -10 7 1076.28 152.753 1
 1 10 7 880.009 116.869 8
 1 -10 -7 893.18 118.281 3
 -1 10 -7 698.073 101.281 6
 -1 -10 8 2314.22 221.775 1
 1 10 8 2635.87 188.485 8
 1 -10 -8 2446.5 186.049 3
 -1 10 -8 2141.11 165.667 6
 -1 10 -9 1663.54 147.218 6
 -1 -10 9 1915.16 199.663 1
 1 -10 -9 1958.16 168.084 3
 1 10 9 1985.93 159.873 8
 -1 10 -10 566.609 100.623 6
 -1 -10 10 448.091 106.325 1
 1 -10 -10 531.735 95.0157 3
 1 10 10 527.318 88.8229 8
 -1 10 -11 3773.84 221.912 6
 -1 -10 11 3733.92 269.514 1
 1 -10 -11 4079.78 237.524 3
 1 10 11 3935.96 222.601 8
 -1 10 -12 590.657 96.782 6
 1 10 12 508.984 89.4517 8
 1 -10 -12 490.28 91.1603 3
 -1 -10 12 505.625 110.968 1
 1 11 -12 848.946 109.053 6
 1 -11 12 616.858 121.708 1
 -1 -11 -12 585.824 104.218 3
 -1 11 12 548.367 85.2906 8
 1 11 -11 2941.28 204.592 6
 1 -11 11 2221.25 227.166 1
 -1 -11 -11 2817.12 210.748 3
 -1 11 11 2676.45 177.248 8
 1 11 -10 1604.21 157.467 6
 1 -11 10 2183.79 221.794 1
 -1 -11 -10 1848.46 178.163 3
 -1 11 10 1835.97 154.266 8
 1 11 -9 4880.35 258.041 6
 1 -11 9 6551.33 406.317 1
 -1 -11 -9 6659.78 318.841 3
 -1 11 9 5307.48 261.008 8
 1 11 -8 3775.59 229.979 6
 -1 11 8 3941.84 223.127 8
 1 -11 8 4207.85 314.703 1
 1 -11 7 12551.6 539.373 1
 -1 11 7 14928.3 441.554 8
 -1 -11 -7 14317.4 462.005 3
 1 11 -7 12442.4 416.556 6
 -1 11 6 5496.89 269.518 8
 -1 -11 -5 10804.8 386.245 2
 -1 -11 -4 6861.24 314.778 2
 1 11 4 7575.86 319.241 8
 -1 -11 4 7500.94 397.265 1
 1 11 5 14805.4 448.445 8
 1 -11 -5 16054.3 480.973 3
 -1 -11 5 14427.4 549.441 1
 1 11 6 5459.63 276.091 8
 -1 11 -6 5028.36 253.821 6
 1 -11 -6 5411.06 283.736 3
 -1 -11 6 4628.12 327.675 1
 1 11 7 13958.5 432.623 8
 1 -11 -7 15300.8 478.557 3
 -1 -11 7 12621.7 550.442 1
 -1 11 -7 16203 466.803 6
 -1 11 -8 4883.46 256.282 6
 1 -11 -8 4422.81 258.336 3
 -1 -11 8 4081.35 297.711 1
 -1 11 -9 5798.73 287.591 6
 -1 -11 9 6645.14 370.141 1
 1 -11 -9 6801.66 315.661 3
 1 11 9 6363.9 291.691 8
 -1 11 -10 1898.61 168.561 6
 -1 -11 10 1710.92 198.099 1
 1 -11 -10 1904.57 170.87 3
 1 11 10 1812.36 158.993 8
 -1 11 -11 3236.75 211.932 6
 -1 -11 11 3020.66 252.371 1
 1 -11 -11 3318.3 220.279 3
 1 11 11 3786.55 222.488 8
 1 -11 -12 582.244 103.229 3
 -1 -11 12 529.538 121.304 1
 -1 11 -12 846.63 111.429 6
 1 -12 11 1292.07 178.519 1
 -1 -12 -10 399.178 103.908 3
 -1 12 10 662.228 95.2164 8
 -1 12 9 1866.79 156.816 8
 -1 12 8 2131.31 171.502 8
 1 -12 -8 1855.2 174.926 3
 -1 -12 8 2007.9 218.801 1
 1 12 8 1501.96 151.339 8
 -1 -12 9 1561.68 195.932 1
 1 -12 -9 1889.45 183.067 3
 1 12 9 1795.15 161.741 8
 -1 12 -9 1480.45 157.91 6
 1 -12 -10 473.461 97.6528 3
 -1 12 -10 584.536 102.951 6
 -1 -12 10 478.379 119.787 1
 1 12 10 557.022 95.9792 8
 2 0 0 79679.9 517.178 6
 -2 0 0 67494.4 506.669 8
 2 0 -1 2267.45 86.0001 4
 2 0 -1 2642.33 92.6135 3
 2 0 1 2682.56 92.7513 6
 -2 0 1 2591.91 150.836 2
 -2 0 1 2363.27 97.371 8
 -2 0 -1 2321.71 101.658 8
 2 0 -1 2403.32 94.6368 6
 -2 0 -1 2346.21 84.2836 5
 2 0 1 1961.46 80.8002 7
 -2 0 -2 138483 773.782 2
 2 0 2 148014 733.465 4
 -2 0 2 137994 824.465 1
 2 0 -2 148033 755.496 3
 -2 0 2 125615 1140.62 2
 2 0 -2 150527 796.551 6
 2 0 2 148929 773.63 7
 -2 0 2 134799 750.236 8
 -2 0 -2 139458 744.535 5
 2 0 -2 167601 828.779 4
 -2 0 3 16384.6 293.986 1
 -2 0 3 15620 260.713 8
 2 0 -3 20242.7 309.902 6
 2 0 3 18775.2 283.921 7
 -2 0 -3 17234.7 273.683 5
 2 0 -3 18025.1 266.293 3
 -2 0 -3 17278.8 280.539 2
 2 0 3 17182.1 258.116 4
 2 0 4 34671.5 433.534 7
 2 0 4 31770.7 394.5 4
 -2 0 -4 32076.8 416.58 2
 -2 0 4 34661.1 454.046 1
 -2 0 -4 31130.7 418.893 5
 2 0 -4 34462.3 398.826 3
 2 0 5 13835.3 212.591 1
 2 0 -5 14903.5 291.261 6
 -2 0 5 13602.1 298.954 1
 -2 0 -5 15711.9 386.56 3
 -2 0 5 16681.1 308.971 8
 -2 0 -5 15183.4 296.907 5
 -2 0 -5 13617.8 293.567 2
 2 0 5 13961.8 280.712 7
 2 0 6 20110.3 361.852 7
 -2 0 6 20939.6 404 1
 -2 0 -6 20005.1 375.42 2
 -2 0 -6 19520.6 425.843 3
 -2 0 6 20442.2 364.222 8
 2 0 -6 17114.8 346.172 3
 2 0 6 22480.8 377.5 4
 -2 0 -6 18892.2 362.519 5
 2 0 7 2052.34 123.552 8
 2 0 -7 2278.33 129.737 3
 2 0 7 2443.65 138.259 4
 -2 0 -7 1778.01 120.016 5
 -2 0 7 2051.75 138.688 1
 -2 0 7 2366.33 132.1 8
 2 0 7 2327.39 133.085 7
 2 0 8 18771.7 393.457 7
 -2 0 8 20188.8 446.313 1
 -2 0 -8 19849.8 427.425 5
 -2 0 -8 17772.3 368.634 6
 -2 0 -8 17140 449.133 3
 2 0 -8 18229.4 377.29 3
 -2 0 8 18202.2 378.619 8
 2 0 8 18179.4 420.935 1
 2 0 -9 39536.2 584.968 3
 2 0 9 39418.2 636.583 7
 -2 0 -9 40950.4 664.834 5
 -2 0 -9 36626.9 549.443 6
 -2 0 -9 38377.7 665.451 3
 2 0 9 39643.4 588.793 8
 -2 0 9 38532.7 578.363 8
 -2 0 9 38215.7 648.712 1
 2 0 9 39225.9 647.186 1
 2 0 10 8016.44 289.395 7
 2 0 10 7358.78 300.242 1
 -2 0 10 8614.06 324.221 1
 -2 0 -10 7621.5 290.718 5
 2 0 10 8263.4 284.025 8
 -2 0 -10 7685.42 266.376 6
 2 0 -10 8760.22 297.098 3
 -2 0 -10 7350.16 298.606 3
 2 0 -11 24875.1 517.094 3
 2 0 11 25936.3 525.424 7
 -2 0 -11 24864.1 555.895 5
 -2 0 -11 25572.9 508.928 6
 -2 0 -11 24072.3 536.032 3
 2 0 11 24712.8 504.761 8
 -2 0 11 26071.1 510.166 8
 2 0 11 23021.5 534.36 1
 -2 0 11 25054.5 570.808 1
 2 0 -11 23612.4 501.309 6
 2 0 12 8088.26 304.984 7
 2 0 12 6732.96 300.248 1
 -2 0 12 6916.35 311.429 1
 -2 0 -12 6747.15 300.084 5
 -2 0 12 7514.58 283.675 8
 2 0 -12 7040.89 289.393 3
 -2 0 -12 7214.04 308.208 3
 2 0 12 7994.75 303.352 8
 -2 0 -12 8090.05 298.087 6
 2 0 -12 6177 276.596 6
 2 0 13 21386.4 523.984 7
 -2 0 -13 25067.5 580.952 3
 -2 0 13 23774 519.461 8
 -2 0 -13 23013.2 545.023 5
 -2 0 13 20489.5 565.817 1
 2 0 13 21211.4 541.402 1
 2 0 13 21960.7 520.828 8
 -2 0 -13 24340.3 552.685 6
 2 0 -13 24164.9 566.689 6
 -2 0 -14 1910.81 171.201 3
 -2 0 14 2138.51 161.354 8
 2 0 14 2116.36 186.088 1
 -2 0 -14 2249.01 176.604 6
 2 0 -14 2424.03 199.952 6
 2 0 14 2616.53 185.744 7
 -2 0 -14 2201.94 179.824 5
 2 0 15 10614.4 399.335 1
 2 0 15 11157.2 397.639 7
 -2 0 -15 10245.7 380.412 3
 2 0 -15 9964.86 374.176 6
 -2 0 -16 221.037 66.2055 5
 2 0 16 236.192 72.4183 1
 2 0 16 206.927 68.9944 7
 2 1 -16 995.094 123.713 6
 -2 -1 -16 1116.77 128.76 3
 2 -1 16 1026.43 135.07 1
 -2 -1 -15 2463.67 187.761 3
 -2 -1 -15 2519.4 190.906 5
 2 -1 15 2881.52 213.654 7
 2 1 -15 2760.36 211.569 6
 -2 1 15 2319.24 166.781 8
 2 -1 15 2574.92 198.173 1
 -2 -1 -14 3555.65 227.352 5
 2 -1 14 3662.4 232.72 7
 -2 1 14 3840.72 210.25 8
 -2 -1 -14 3578.38 226.958 3
 2 -1 13 13337.6 407.916 7
 -2 -1 -13 12107.2 402.51 5
 2 1 -13 9734.57 341.937 6
 -2 1 13 11509.9 353.183 8
 2 -1 13 10940.3 393.438 1
 -2 -1 -13 11250.7 385.572 3
 2 -1 12 10904.1 364.913 7
 -2 -1 -12 10937 378.45 5
 -2 -1 -12 11563.5 373.699 6
 -2 1 12 12012.3 353.395 8
 2 -1 11 39520.7 645.582 8
 -2 -1 -11 39854.4 700.635 3
 2 1 -11 38438.9 646.959 6
 2 -1 11 39080 691.939 1
 -2 1 11 38681.3 623.873 8
 2 -1 10 18152.2 431.772 7
 2 1 -10 16326.4 393.024 3
 2 -1 10 16241.2 385.337 8
 -2 -1 -10 17892.9 465.629 3
 -2 -1 -10 16400.8 381.168 6
 -2 -1 -10 16896.1 443.669 5
 -2 1 10 14738.1 423.914 1
 2 -1 10 19665.1 477.484 1
 -2 1 10 18074.2 413.2 8
 2 -1 9 103187 1027.93 7
 2 -1 9 98228.4 923.969 8
 -2 -1 -9 102376 1062.48 3
 -2 -1 -9 105414 938.707 6
 -2 -1 -9 101035 1035.7 5
 2 1 -9 101980 979.25 6
 -2 1 9 104084 958.652 8
 -2 1 9 102566 1056.67 1
 2 -1 9 107447 1103.21 1
 2 -1 8 23742.8 423.073 8
 2 -1 8 24463.7 464.539 7
 2 1 -8 25487.6 430.787 3
 -2 1 8 24764.1 441.731 8
 -2 -1 -8 25362.5 540.461 3
 -2 -1 -8 24596.6 412.814 6
 -2 -1 -8 26752.1 512.951 5
 2 1 -8 24311.4 453.104 6
 2 -1 8 23306.5 484.843 1
 2 -1 7 128539 931.918 8
 -2 -1 -7 131991 1083.05 5
 2 -1 7 139921 1045.05 7
 -2 -1 -7 126055 893.135 6
 2 1 -7 118257 942.603 3
 -2 1 7 127995 982.511 8
 -2 -1 -7 142829 1245.21 3
 2 -1 7 138055 1157.43 1
 -2 1 7 124662 1028.78 1
 2 1 -7 137364 1043.18 6
 -2 1 6 50866.5 580.901 8
 2 1 -6 47689 584.953 6
 -2 -1 -6 46470.4 581.689 5
 2 1 -6 47678.1 529.398 3
 2 -1 6 50708.7 592.979 7
 -2 -1 -6 49662.9 623.204 2
 -2 -1 -6 53798 704.845 3
 2 -1 6 52718.7 585.435 4
 -2 1 6 45328.3 574.643 1
 2 -1 6 53903.2 680.93 1
 -2 -1 -5 146476 945.049 5
 2 1 -5 141395 851.395 3
 -2 -1 -5 140073 1110.44 3
 -2 1 5 151565 954.879 8
 2 1 -5 131206 931.198 6
 -2 -1 -5 139057 1020.54 2
 2 -1 5 145983 966.485 4
 2 -1 5 151830 955.673 7
 -2 1 5 165845 989.651 1
 -2 -1 -4 46028.5 489.772 5
 -2 1 4 50356.9 521.346 8
 2 -1 4 56399.9 408.632 1
 -2 1 4 50140.8 514.454 1
 2 1 -4 49670.6 458.325 3
 -2 -1 -4 53163.4 684.396 3
 -2 1 3 31433.7 376.174 1
 2 -1 3 32041.2 377.069 4
 2 1 -3 28195.3 363.208 6
 -2 -1 -3 29907.1 366.882 5
 2 -1 3 28867.8 363.251 7
 -2 -1 -3 32038.6 511.89 3
 2 1 -3 33603.7 339.245 3
 -2 -1 -2 37067.8 437.089 2
 -2 1 2 36104.6 373.187 8
 2 -1 2 37186.8 348.526 7
 -2 1 2 36563.7 387.422 1
 2 1 -2 35680 401.389 6
 2 1 -1 93249.8 525.371 4
 2 -1 1 97229.5 580.4 4
 -2 1 1 89997.5 563.095 8
 2 1 -1 87148.8 574.374 6
 2 -1 1 93935.9 520.434 7
 -2 -1 -1 93347.3 695.244 2
 2 1 0 3815.32 104.094 6
 2 -1 0 3388.25 105.808 6
 -2 -1 0 3849.99 153.961 2
 2 1 0 3974.89 93.823 4
 2 -1 0 3566.94 113.209 4
 2 -1 0 3750.56 110.667 3
 2 -1 0 3648.96 90.6072 7
 2 1 0 3611.32 117.081 7
 -2 1 0 3256.83 103.923 5
 -2 -1 0 4236.41 95.7993 5
 -2 -1 0 4631.95 147.692 8
 -2 1 0 3855.91 139.324 2
 -2 -1 0 4208.95 154.982 1
 2 1 1 65445.5 521.022 7
 -2 1 -1 69309.1 493.271 8
 -2 -1 1 74840.9 559.941 8
 2 -1 -1 65956.1 478.318 3
 -2 1 -1 72093.5 496.361 5
 -2 1 -1 69797.3 471.502 2
 -2 -1 1 72080.7 633.136 1
 2 -1 -1 71481.6 498.286 4
 2 -1 -1 62174.6 473.801 6
 -2 -1 1 64544.1 724.001 2
 -2 -1 2 34441.8 395.28 8
 -2 -1 2 33710.6 440.832 1
 2 -1 -2 36499.7 388.127 6
 -2 -1 2 34777.5 603.29 2
 2 -1 -2 35493.6 383.274 3
 2 1 2 33544.2 382.114 7
 -2 1 -2 37111.5 330.67 2
 2 -1 -2 34574 372.238 4
 2 1 3 31112.1 319.926 4
 -2 1 -3 32222 388.447 5
 2 -1 -3 29300.3 376.085 4
 -2 -1 3 35028 461.312 1
 2 1 3 30216 374.862 7
 -2 1 -3 30168.4 330.916 2
 2 -1 -3 31729.2 381.851 3
 -2 -1 3 31985.9 629.824 2
 -2 -1 3 30601.9 372.432 8
 2 -1 -3 27398.4 365.01 6
 -2 1 -4 62193 553.893 2
 2 1 4 56036.9 492.194 4
 2 1 4 51903 512.472 7
 2 -1 -4 52404.2 534.547 6
 -2 -1 4 52614.6 514.967 8
 -2 1 -4 58440.5 552.731 5
 -2 1 -5 155315 1014.43 5
 -2 -1 5 150685 948.048 8
 -2 -1 5 169688 1128.2 1
 2 -1 -5 136000 933.399 3
 -2 1 -5 130007 876.226 2
 -2 1 -5 158325 1254.66 3
 2 -1 -5 147996 1037.5 6
 2 1 5 143048 711.739 1
 2 1 5 155932 1013.63 7
 2 1 6 52165.9 430.643 1
 2 1 6 56669.3 592.956 4
 -2 -1 6 57617.7 608.517 8
 -2 1 -6 55666.7 610.987 5
 -2 1 -6 51985.1 715.981 3
 2 1 6 52243.6 585.457 7
 2 -1 -7 123654 977.355 3
 -2 1 -7 123142 971.693 5
 -2 -1 7 124466 961.355 8
 2 1 8 24487.1 446.909 7
 -2 -1 8 24254.6 432.864 8
 -2 -1 8 26910.6 532.13 1
 -2 1 -8 24021 513.599 3
 -2 1 -8 24462.5 465.005 5
 -2 1 -8 24652.3 434.783 6
 2 1 8 24206.5 448.561 8
 2 -1 -8 22564.1 433.214 3
 2 1 8 26498.4 509.018 1
 2 1 9 107181 1019.68 7
 -2 -1 9 98261 944.308 8
 -2 -1 9 99879.6 1081.92 1
 2 1 9 103667 980.611 8
 -2 1 -9 103684 942.382 6
 -2 1 -9 103207 1027.6 5
 -2 1 -9 106037 1136.79 3
 2 1 9 104724 1050.24 1
 2 -1 -9 98751.5 961.02 3
 2 1 10 16744.3 408.148 8
 -2 1 -10 17186.4 439.361 5
 -2 -1 10 16730.7 403.582 8
 2 1 10 17765.4 415.339 7
 -2 -1 11 42801.6 667.705 8
 -2 1 -11 38968.2 616.318 6
 -2 -1 11 37411.5 707.36 1
 2 1 11 40885.7 720.622 1
 2 -1 -11 37985.6 640.214 3
 2 -1 -11 44464.9 729.972 6
 2 1 11 39863.4 657.176 8
 -2 1 -11 38151.7 662.538 5
 2 1 11 39047.4 651.909 7
 -2 1 -11 40941 700.988 3
 -2 -1 12 13165.2 392.507 8
 -2 1 -12 10602.8 333.633 6
 2 1 12 10421.7 369.017 1
 -2 -1 12 10707.1 383.303 1
 2 1 12 13388.4 384.333 7
 2 1 12 11575.5 359.73 8
 -2 1 -12 12169 393.248 5
 -2 1 -12 10800.3 376.132 3
 2 -1 -12 11356.7 356.289 3
 -2 -1 13 10658.9 390.426 1
 2 1 13 9293.9 359.655 1
 -2 1 -13 13916.2 436.179 3
 2 1 13 12708.5 400.394 8
 2 -1 -13 10863.1 367.556 3
 -2 1 -13 12732.2 388.832 6
 2 -1 -13 13192.6 424.388 6
 2 1 13 12243.5 385.134 7
 -2 1 -13 12284.6 402.395 5
 -2 -1 14 4108.46 254.449 1
 2 1 14 4097.71 245.885 1
 2 1 14 4098.09 225.01 8
 -2 1 -14 3955.45 230.519 6
 2 -1 -14 3864.53 235.817 6
 -2 1 -14 3313.31 220.091 3
 2 -1 -14 3609.42 218.679 3
 2 1 14 3578.84 218.662 7
 -2 -1 15 2691.49 319.978 2
 -2 1 -15 2318.3 182.424 5
 2 1 15 2485.09 182.926 7
 -2 1 -15 2301.35 179.827 6
 -2 -1 15 2057.57 194.6 1
 2 1 15 2236.95 187.749 1
 2 1 16 1304.3 140.19 7
 2 -1 -16 1363.09 137.657 4
 -2 -1 16 908.956 214.442 2
 -2 1 -16 1178.65 133.754 5
 2 2 -16 2662.88 197.428 6
 -2 -2 -16 2949.66 200.69 3
 2 -2 16 2447.76 197.665 1
 -2 2 16 2822.52 184.744 8
 -2 2 15 3998.56 212.989 8
 2 2 -15 4051.47 237.512 6
 2 -2 15 3951.16 246.346 1
 -2 -2 -15 3536.19 216.871 5
 -2 -2 -15 4444.93 242.195 3
 -2 -2 -14 4653.95 253.625 3
 -2 -2 -14 4679.07 256.978 5
 2 -2 14 4972.5 269.366 1
 2 -2 14 5387.29 289.026 7
 2 -2 13 9424.62 411.996 1
 -2 -2 -13 9378.3 353.699 3
 2 -2 13 9955.97 380.527 7
 -2 -2 -13 10117 374.48 5
 -2 -2 -12 17091 473.925 3
 2 2 -12 13567.7 393.534 6
 2 -2 12 19338.2 491.918 7
 -2 -2 -12 16216.9 466.842 5
 2 -2 12 15231.8 460.758 1
 -2 -2 -11 17914 476.05 3
 2 -2 11 16758.3 465.021 7
 -2 -2 -11 16907.7 435.712 6
 -2 -2 -11 17626.1 474.669 5
 2 -2 11 17450.7 472.016 1
 -2 -2 -10 19372 423.213 6
 2 -2 10 23428.5 509.632 7
 -2 -2 -10 23849 538.94 3
 -2 2 10 21873.1 452.89 8
 2 -2 10 21373.9 503.775 1
 -2 2 10 22485.7 509.386 1
 -2 -2 -10 21689.6 520.546 5
 2 2 -10 21656.1 465.554 6
 2 2 -10 20482.8 442.62 3
 2 -2 10 20011.9 431.212 8
 2 -2 9 5386.74 205.805 8
 -2 2 9 5516.87 218.617 8
 2 2 -9 5938.41 237.117 6
 2 -2 8 41903.7 609.993 4
 -2 -2 -8 41325.3 537.982 6
 2 -2 8 41047.3 613.982 7
 -2 -2 -8 40036.9 644.311 3
 -2 2 8 39632.2 558.815 8
 2 2 -8 36908.5 525.855 3
 -2 -2 -8 41378.2 636.142 5
 2 -2 8 40115.2 529.988 8
 -2 -2 -8 39960.2 648.565 2
 -2 2 8 42556.3 618.977 1
 2 -2 8 43796.3 680.118 1
 2 2 -8 41198.7 592.595 6
 -2 -2 -7 11596 324.371 2
 2 -2 7 11533 297.75 4
 -2 -2 -7 10835.4 254.075 6
 -2 2 7 10547.8 282.456 8
 -2 -2 -7 10588.9 311.265 5
 2 -2 7 9984.98 244.179 8
 -2 2 7 10543.2 285.91 1
 -2 -2 -7 11239.6 351.32 3
 2 2 -7 10494.7 251.714 3
 2 -2 7 11678 313.661 7
 2 -2 7 12085.6 342.737 1
 2 2 -7 9566.82 276.47 6
 -2 -2 -6 60706.6 780.545 3
 -2 -2 -6 58625.7 692.149 5
 2 -2 6 57459.3 638.929 4
 2 -2 6 49265.8 495.616 8
 2 2 -6 47861.7 506.474 3
 2 -2 6 57368.2 644.564 7
 2 2 -6 51196.6 607.234 6
 2 -2 6 56293.3 701.839 1
 -2 2 6 48538 552.004 1
 -2 2 6 49772.1 587.41 8
 -2 -2 -6 53315.8 696.926 2
 2 -2 5 2440.25 132.014 4
 2 2 -5 2577.28 106.849 3
 -2 2 5 2573.02 126.134 8
 -2 -2 -5 2396.13 126.94 5
 2 2 -5 1764.34 112.896 6
 -2 -2 -5 2398.58 136.032 2
 2 -2 5 2256.86 140.752 1
 -2 -2 -5 2170.13 144.374 3
 2 -2 5 2722.22 130.702 7
 -2 2 5 2863.02 125.706 1
 -2 2 4 17056.5 297.741 8
 -2 -2 -4 16235.7 292.495 5
 2 2 -4 15127.3 292.187 6
 2 -2 4 13074.3 285.949 1
 -2 2 4 15696.3 257.731 1
 2 2 -4 15467 239.209 3
 -2 -2 -4 15471.2 346.812 3
 -2 -2 -4 14801.8 321.144 2
 2 -2 4 18679.9 328.161 4
 2 2 -3 42021.8 336.609 3
 2 -2 3 43642.5 343.88 1
 -2 -2 -3 41437.9 429.885 5
 -2 -2 -3 44177.4 586.276 3
 2 -2 3 42385.6 418.237 7
 -2 -2 -2 15421.2 304.907 2
 2 2 -2 15121 254.118 6
 -2 2 2 15932.5 253.405 8
 2 -2 2 14650.4 180.117 1
 2 -2 2 11105.6 229.506 4
 -2 -2 -2 19773.7 372.245 3
 -2 2 2 15288.3 227.615 1
 2 -2 2 14513.6 211.684 7
 -2 -2 -2 15297.6 226.312 5
 2 2 -2 14248.4 174.001 3
 -2 -2 -1 2702.72 137.588 3
 2 -2 1 3174.64 118.969 4
 -2 2 1 3120.14 103.989 8
 -2 -2 -1 3011.05 141.577 2
 2 2 -1 3140.37 110.247 6
 -2 2 0 102341 646.881 5
 -2 -2 0 115545 845.752 1
 2 -2 0 118492 676.567 4
 2 2 0 116556 498.349 4
 -2 2 0 118020 751.319 2
 2 -2 0 113357 726.552 6
 2 2 0 110680 723.076 7
 -2 -2 0 77936.8 683.024 8
 2 2 0 120525 611.817 6
 2 -2 0 110123 689.41 3
 -2 -2 0 115300 877.892 2
 -2 -2 0 106201 447.829 5
 -2 -2 1 6915.81 98.3333 5
 2 2 1 6609.4 101.634 4
 2 -2 -1 10820 215.638 4
 2 2 1 6923.8 145.175 6
 2 -2 -1 10459.8 207.237 6
 2 -2 -1 5980.75 90.021 7
 2 2 1 6568.85 176.346 7
 -2 2 -1 6097.31 157.026 5
 -2 -2 1 7757.23 223.496 1
 2 -2 -1 7162.01 172.794 3
 -2 -2 1 6737.62 190.215 8
 -2 2 -1 7181.05 142.027 8
 -2 2 -1 8036.01 125.18 2
 -2 -2 1 7088.06 242.57 2
 -2 2 -2 18397.1 181.712 2
 2 2 2 20533.7 193.615 4
 2 2 2 20965.8 311.543 7
 -2 -2 2 19665.5 450.958 2
 2 -2 -2 18030.8 273.222 6
 -2 2 -2 19926.1 282.657 5
 -2 -2 2 19844.1 362.798 1
 2 -2 -2 18903.9 288.663 4
 -2 -2 2 17146 291.97 8
 2 -2 -2 20437.9 312.001 3
 -2 -2 3 49050.8 800.697 2
 -2 2 -3 51573.8 372.297 2
 2 2 3 50460.4 509.724 7
 -2 -2 3 49890.9 521.903 8
 2 -2 -3 44965.9 466.078 6
 -2 2 -3 55642 530.696 5
 2 -2 -3 48011.8 492.764 4
 2 -2 -4 17252.4 314.672 4
 2 2 4 20303.8 335.217 7
 2 -2 -4 23152.1 375.087 3
 2 -2 -4 19216.7 312.477 6
 -2 2 -4 20314.9 326.031 5
 -2 -2 4 17309.9 369.216 1
 2 2 4 16810.1 245.398 4
 -2 -2 4 17970.6 520.303 2
 -2 -2 5 4344.13 158.099 8
 2 -2 -5 4273.43 167.882 3
 2 -2 -5 4335.43 169.41 4
 -2 -2 5 4993.2 300.703 2
 -2 -2 5 4667.59 194.823 1
 -2 2 -5 4626.38 176.858 5
 2 -2 -5 3872.49 156.077 6
 -2 2 -5 4331.67 214.467 3
 2 2 5 5224.14 178.223 7
 2 2 6 55811.6 443.323 1
 2 -2 -6 53236.4 616.841 3
 -2 2 -6 49597 591.717 5
 -2 2 -6 48941.9 702.426 3
 2 2 6 52451.8 598.392 7
 2 -2 -6 59089.3 644.716 6
 -2 -2 6 54762.3 706.8 1
 -2 -2 6 52324 591.806 8
 2 2 7 16210.4 277.663 1
 2 2 7 13766.5 314.682 7
 2 -2 -7 13219.7 322.624 3
 -2 2 -7 11513.6 299.549 5
 -2 2 -7 12084.4 344.136 3
 2 -2 -7 14989.1 339.432 6
 -2 -2 7 13704 372.983 1
 -2 -2 7 13074.8 313.938 8
 2 2 8 40127.8 568.681 7
 -2 2 -8 32836.4 595.211 3
 -2 2 -8 40827.3 581.659 6
 -2 2 -8 41052.1 573.621 5
 2 2 8 37883.5 581.182 8
 2 2 8 33194.8 563.025 1
 2 2 9 7156.32 260.336 8
 2 2 9 7180.76 275.63 1
 2 2 9 7342.39 257.829 7
 -2 -2 9 7245.15 253.723 8
 -2 2 -9 7574.91 305.241 3
 -2 -2 9 6814.93 286.838 1
 -2 2 -9 7113.29 253.762 6
 2 -2 -9 7822.48 281.567 6
 2 -2 -9 6825.03 254.048 3
 -2 -2 10 22242.3 527.893 1
 2 2 10 20566.6 439.367 7
 -2 -2 10 20861.5 451.398 8
 -2 2 -10 18985.2 471.704 3
 2 2 10 23241.6 480.966 8
 -2 2 -10 23024.9 470.548 6
 2 -2 -10 21946.1 490.731 6
 2 -2 -10 21599.7 481.738 3
 2 2 11 16223.6 453.474 1
 -2 -2 11 15813.8 455.532 1
 2 2 11 18317.8 431.844 7
 -2 -2 11 20355.6 478.294 8
 -2 2 -11 20608.3 503.874 3
 -2 2 -11 17448.9 451.824 5
 2 2 11 18095.4 448.042 8
 -2 2 -11 17444.8 416.267 6
 2 -2 -11 17285.7 435.601 3
 2 -2 -11 19046.5 468.81 6
 2 2 12 15340.9 446.187 1
 2 -2 -12 18886.1 495.202 6
 -2 2 -12 17011.4 475.8 3
 -2 2 -12 16616 457.522 5
 2 2 12 17536.5 439.383 8
 -2 -2 12 17211.4 459.488 8
 2 2 12 17371.5 434.014 7
 2 2 13 10526.2 350.521 7
 2 2 13 9001.92 356.06 1
 -2 -2 13 11811.8 634.377 2
 -2 2 -13 10058.3 368.702 5
 -2 2 -13 10702.4 388.481 3
 2 2 13 10515.7 357.807 8
 2 -2 -13 9593.74 340.382 3
 -2 2 -13 11097.4 353.658 6
 2 -2 -14 4439.73 238.012 3
 2 2 14 4578.38 268.165 1
 -2 2 -14 4688.21 251.342 5
 2 2 14 5088.33 253.294 7
 2 2 14 4923.39 251.546 8
 2 -2 -15 4551.01 250.011 4
 -2 2 -15 4467.76 250.752 5
 2 2 15 4435.46 238.374 8
 -2 -2 15 4540.79 424.508 2
 -2 2 -15 3915.89 228.356 6
 -2 -2 15 4788.12 285.836 1
 2 2 15 4459.91 239.72 7
 2 -2 -15 3478.04 220.675 3
 -2 -2 16 2855.64 314.049 2
 2 2 16 2712.6 196.824 7
 -2 2 -16 2481.65 191.614 5
 -2 -2 16 2161.74 198.558 1
 2 -2 -16 2804.35 198.389 4
 -2 2 -16 2837.2 196.267 6
 -2 3 16 683.708 92.5962 8
 2 3 -16 890.335 115.811 6
 -2 -3 -16 820.364 118.069 3
 2 -3 16 612.869 106.231 1
 -2 3 15 1402 127.229 8
 -2 -3 -15 1535.66 148.231 3
 2 -3 15 1314.1 144.769 1
 2 3 -14 2707.75 179.326 6
 -2 3 14 2936.97 178.608 8
 -2 -3 -14 3231.58 209.278 3
 -2 -3 -14 3564.58 219.701 5
 2 -3 13 5233 275.041 1
 -2 3 13 5054.13 235.603 8
 -2 -3 -13 5407.99 274.032 3
 2 -3 13 6059.58 307.235 7
 -2 -3 -13 5011.13 269.109 5
 -2 -3 -12 10028.7 368.376 3
 2 -3 12 10322.2 383.97 1
 -2 3 12 10069.1 319.981 8
 2 3 -12 9643.24 327.839 6
 2 -3 12 9888.55 381.555 7
 -2 -3 -12 10716.2 387.408 5
 2 -3 11 19130.7 497.343 7
 2 3 -11 18913.7 454.41 6
 2 -3 11 19302.4 503.348 1
 -2 3 11 20259.7 450.591 8
 -2 -3 -11 20446.4 522.974 5
 -2 -3 -11 21240.8 523.746 3
 2 -3 10 27984.4 597.227 1
 -2 -3 -10 29146.8 621.429 3
 -2 3 10 27085.9 508.388 8
 -2 -3 -10 30369.6 612.438 5
 2 -3 9 27921.2 569.336 1
 -2 -3 -9 32303.7 496.384 6
 2 3 -9 35598.5 578.516 6
 -2 -3 -9 35127.2 640.185 5
 -2 -3 -9 30017.6 593.901 3
 -2 3 9 29860.4 521.436 8
 2 -3 8 65678 642.927 8
 -2 3 8 47667.8 740.156 7
 -2 -3 -8 65451.6 841.364 5
 2 -3 8 64755.2 778.975 4
 2 -3 8 73063.6 858.756 7
 -2 3 8 63249.9 727.482 1
 2 -3 8 66785.9 855.701 1
 2 3 -8 66061.4 766.199 6
 -2 -3 -8 70641.9 878.43 3
 -2 -3 -8 53205 729.92 2
 -2 -3 -8 68871.5 658.292 6
 -2 3 8 64517.6 751.351 8
 -2 -3 -7 33598.3 591.176 2
 2 -3 7 37800.3 547.916 4
 2 -3 7 35360.9 420.928 8
 -2 3 7 33905 546.386 7
 -2 -3 -7 39588.1 628.015 3
 2 -3 7 40716.6 608.658 7
 2 -3 7 45172.2 685.312 1
 2 3 -7 36718.2 449.906 3
 -2 -3 -7 34908.7 593.725 5
 2 3 -7 39825.2 568.188 6
 -2 3 7 44523.5 609.85 8
 -2 -3 -6 104113 939.17 5
 2 -3 6 87254.1 606.707 8
 -2 3 6 100301 875.418 7
 -2 3 6 87262 717.624 1
 2 -3 6 101370 901.997 4
 2 3 -6 105516 692.156 3
 -2 -3 -6 104546 1009.07 2
 2 -3 6 96313 874.7 7
 2 -3 6 111524 1026.62 1
 -2 -3 -6 98067.6 656.842 6
 -2 -3 -6 113305 1074.43 3
 2 3 -6 102343 885.391 6
 -2 3 6 90022.3 838.306 8
 -2 3 5 11307.5 224.17 1
 -2 -3 -5 11888.2 341.285 3
 -2 -3 -5 9868.29 288.587 2
 2 -3 5 13071.6 305.051 4
 -2 3 5 14191.7 292.205 7
 -2 3 5 11524.5 279.083 8
 2 -3 5 10666.4 274.016 7
 -2 -3 -5 11018.1 291.022 5
 2 3 -5 10416.6 191.362 3
 2 -3 5 12363.4 318.937 1
 2 3 -5 9716.4 258.321 6
 -2 -3 -4 133928 1045.84 2
 2 -3 4 136467 950.928 4
 2 3 -4 136552 607.219 3
 -2 -3 -4 141815 1103.73 3
 -2 -3 -4 140474 960.99 5
 2 3 -4 132915 915.932 6
 -2 3 4 112108 930.82 8
 2 -3 4 144182 1060.41 1
 -2 3 4 158904 742.91 1
 -2 -3 -3 5083.06 161.013 5
 2 -3 3 4380.43 141.666 7
 -2 3 3 5848.47 171.566 8
 2 -3 3 4800.1 168.979 4
 2 3 -3 6113.55 179.455 6
 -2 -3 -3 5401.3 197.421 3
 -2 -3 -3 5069.27 199.034 2
 -2 3 3 4614.25 102.867 1
 2 -3 2 262917 1194.58 1
 2 3 -2 262948 1146.04 6
 2 -3 1 56498.9 360.794 1
 -2 3 1 46667.8 415.162 8
 -2 -3 -1 44916.6 342.306 5
 2 -3 1 64180.7 378.736 7
 -2 -3 -1 45424.9 562.695 2
 2 -3 1 56492.4 536.62 4
 2 3 -1 47089.6 443.89 6
 -2 -3 0 147133 484.955 5
 -2 3 0 143780 831.273 5
 2 -3 0 137978 491.11 1
 2 3 0 133937 896.982 7
 -2 -3 0 132018 1008.6 2
 2 -3 0 156542 870.96 4
 -2 -3 0 139990 1028.48 1
 2 3 0 135992 544.368 4
 2 -3 0 139357 810.877 3
 -2 3 0 141142 676.38 8
 2 3 0 130524 696.316 6
 -2 3 -1 44458.1 453.763 5
 -2 -3 1 49779.7 597.511 1
 2 3 1 52208.7 225.834 4
 -2 -3 1 52206.6 662.853 2
 2 3 1 45383.7 490.315 7
 -2 3 -1 50147.6 374.132 8
 2 3 1 45989.9 346.604 6
 2 -3 -1 47603 486.652 3
 2 3 2 247175 1232.81 7
 2 3 2 240412 808.388 6
 -2 -3 2 251098 1649.26 2
 2 -3 -2 201886 1052.9 6
 2 3 2 206275 562.574 4
 -2 3 -2 227282 822.092 8
 -2 3 -2 232214 1106.82 5
 2 -3 -2 244799 1160.94 4
 -2 -3 3 3558.08 145.869 8
 2 -3 -3 4124.58 156.575 3
 2 -3 -3 4134.12 138.882 6
 2 3 3 3568.84 144.712 7
 -2 -3 3 3795.22 179.076 1
 -2 -3 4 127177 1102.53 1
 2 -3 -4 120719 905.01 3
 -2 -3 4 129399 920.015 8
 2 3 4 134818 914.456 7
 -2 -3 4 140123 1504.79 2
 -2 3 -4 122569 878.546 5
 2 -3 -4 128428 856.058 6
 2 -3 -4 138450 938.824 4
 -2 -3 5 10142.5 437.386 2
 -2 3 -5 10783.3 340.482 3
 2 -3 -5 10237.9 274.416 3
 -2 -3 5 10941.1 317.396 1
 2 3 5 10803.2 259.321 7
 -2 -3 6 88599.2 869.173 8
 -2 3 -6 76357.1 921.699 3
 2 -3 -6 95361.1 880.188 4
 -2 -3 6 117872 1091.98 1
 -2 -3 6 98044.1 1418.82 2
 -2 3 -6 105164 891.65 5
 2 -3 -6 98129.6 903.308 3
 2 -3 -6 110432 870.452 6
 2 3 7 39973 546.167 7
 2 -3 -7 40385.5 584.758 3
 2 -3 -7 43157.6 612.422 4
 -2 -3 7 37242.8 906.077 2
 -2 3 -7 42724.8 670.424 3
 -2 -3 7 42703.1 594.711 8
 -2 3 -7 45036.6 584.853 5
 2 -3 -7 40631.2 580.888 6
 2 3 7 40589 398.507 1
 -2 -3 7 42010.7 664.048 1
 -2 -3 8 61778.2 1261.73 2
 -2 -3 8 64551.7 861.085 1
 -2 -3 8 63430.1 758.596 8
 2 -3 -8 69075.3 805.882 4
 -2 3 -8 72311.7 872.462 3
 2 3 8 65100.7 787.81 8
 -2 3 -8 55621 684.059 5
 2 -3 -8 68466.3 802.886 3
 -2 3 -8 71040.2 774.918 6
 2 -3 -8 84900.7 893.676 6
 2 3 8 48628 666.754 1
 2 -3 -9 29816.3 560.918 4
 2 -3 -9 43210.4 660.612 6
 -2 -3 9 30987 551.696 8
 -2 3 -9 38994.1 687.9 3
 -2 3 -9 29997.2 537.905 5
 2 3 9 34196.3 614.092 1
 -2 -3 9 31910.3 935.093 2
 2 3 10 27990.3 520.42 7
 2 -3 -10 33021.4 607.122 6
 -2 3 -10 27059.7 512.998 6
 2 -3 -10 26345.1 548.873 4
 2 3 10 26753.3 547.391 1
 -2 -3 10 28637.8 914.574 2
 -2 3 -10 26240.7 532.311 5
 -2 -3 10 25815.5 529.767 8
 -2 3 -10 33827.9 669.602 3
 2 -3 -10 25757 523.36 3
 2 -3 -11 23002.7 521.698 4
 -2 -3 11 19029.8 477.099 8
 2 3 11 20658.8 479.424 8
 2 3 11 25284.1 518.935 7
 -2 -3 11 22369.4 904.418 2
 2 3 11 20949.7 520.628 1
 -2 -3 11 18764.3 503.284 1
 -2 3 -11 21641.9 507.368 5
 -2 3 -11 19834.6 446.279 6
 2 -3 -11 17030.7 438.818 3
 -2 3 -11 17282.7 470.703 3
 -2 -3 12 7633.44 351.437 1
 2 3 12 8970.66 344.522 1
 2 3 12 10146.6 333.097 7
 -2 3 -12 11593.1 350.979 6
 2 3 12 9592.59 328.065 8
 -2 3 -12 9446.68 345.748 5
 2 -3 -12 8864.04 323.678 3
 2 -3 -13 4974.63 245.537 3
 -2 3 -13 5500.27 252.316 6
 -2 -3 13 4125.7 262.832 1
 -2 3 -13 5666.78 277.501 5
 2 3 13 4468.74 240.39 7
 2 -3 -13 6116.15 286.011 4
 -2 -3 13 5626.86 432.293 2
 2 3 13 5455.83 256.725 8
 -2 -3 14 2714.43 212.154 1
 2 3 14 2797.76 186.511 7
 -2 3 -14 3274.48 206.346 6
 2 -3 -14 2717.82 186.448 3
 -2 3 -14 2528.94 188.172 5
 2 3 14 2849.76 201.649 8
 2 3 15 1497.76 136.687 8
 2 -3 -15 1411.31 139.819 3
 -2 -3 15 1315.82 154.946 1
 -2 -3 15 1475.2 247.952 2
 -2 3 -15 1560.54 145.361 6
 2 -3 -15 1406.64 144.757 4
 2 3 15 1128.34 124.988 7
 -2 3 -15 1499.56 152.573 5
 -2 3 -16 685.165 101.091 6
 -2 3 -16 780.304 113.24 5
 2 3 16 741.689 101.507 8
 2 3 16 627.539 101.578 7
 2 -3 -16 632.359 96.4206 3
 -2 -3 16 643.587 114.732 1
 -2 4 16 2222.42 158.993 8
 2 -4 16 2235.03 186.147 1
 -2 -4 -16 2815.65 194.905 3
 2 4 -16 3125.33 207.169 6
 2 -4 15 404.24 89.1024 1
 -2 -4 -15 441.43 88.6882 3
 -2 4 14 7274.19 280.497 8
 2 -4 14 7375.99 328.731 1
 2 4 -14 7158.98 279.567 6
 -2 -4 -13 1860.62 164.709 5
 -2 4 13 1471.25 130.162 8
 2 -4 13 1696.42 162.88 1
 2 4 -13 1472.38 134.744 6
 -2 -4 -13 1698.22 156.772 3
 -2 -4 -12 8451.33 350.16 5
 -2 4 12 8992.98 302.868 8
 2 -4 12 8537.83 348.972 1
 -2 -4 -12 8979.25 353.163 3
 2 4 -12 8808.06 316.405 6
 -2 -4 -10 19003.4 495.004 3
 -2 -4 -10 17522.7 485.195 5
 2 4 -10 18887.3 438.722 6
 -2 4 10 16608 393.948 8
 2 -4 10 19401.3 519.544 7
 2 -4 10 16781 474.235 1
 2 4 -9 15669.3 393.75 6
 2 -4 9 17379.2 458.012 7
 -2 -4 -9 16838.2 463.838 5
 -2 4 9 16419.8 392.994 8
 -2 -4 -9 18253.2 472.872 3
 2 -4 9 16536.1 453.5 1
 2 -4 8 19383.4 477.788 1
 -2 -4 -8 19696 470.876 3
 2 -4 8 18898.8 425.532 4
 -2 -4 -8 19407.3 472.294 5
 -2 4 8 15266.4 396.192 8
 -2 -4 -8 15850.8 415.535 2
 2 4 -8 19819.9 425.754 6
 -2 4 7 32315.6 517.307 7
 2 4 -7 32497.7 534.045 6
 2 -4 7 43170.6 672.317 7
 2 -4 7 37266 626.892 1
 -2 -4 -7 28277.5 547.222 2
 -2 4 7 34211.4 529.964 8
 -2 -4 -7 36199.5 620.542 5
 -2 -4 -7 32541.9 597.202 3
 2 -4 7 29137 496.726 4
 2 -4 6 7249.1 269.623 1
 2 4 -6 6454.4 230.439 6
 -2 -4 -6 7278.53 272.039 3
 -2 -4 -6 5845.53 242.978 2
 -2 -4 -6 6806.23 148.901 6
 2 -4 6 6501.64 236.837 4
 -2 4 6 6447.34 222.908 8
 -2 4 6 6483.43 207.259 7
 2 -4 5 154667 1130.38 7
 2 -4 5 141116 1140.14 1
 2 4 -5 128102 980.332 6
 -2 4 5 117976 838.649 7
 -2 -4 -5 137554 1082.41 5
 -2 -4 -5 120348 1045.85 3
 -2 -4 -5 117714 568.362 6
 -2 4 4 6835.86 206.921 8
 2 4 -4 6571.18 208.586 6
 2 -4 4 7287.9 244.016 1
 -2 -4 -4 6258.34 95.6343 6
 2 -4 4 5360.1 148.766 2
 2 -4 4 6679.63 216.516 4
 2 -4 4 8557.1 240.279 7
 -2 -4 -4 6616.48 245.823 3
 -2 -4 -4 7176.48 225.296 5
 -2 -4 -4 5975.35 231.641 2
 2 -4 3 58646 581.175 7
 -2 4 3 63787 634.155 8
 -2 -4 -3 63930.2 715.808 3
 -2 -4 -3 63998.6 611.219 5
 -2 -4 -3 60407.4 718.071 2
 -2 -4 -2 3813.82 173.656 2
 2 -4 2 3360.69 145.139 4
 -2 -4 -2 3989.95 167.463 3
 2 -4 2 4059.54 155.29 1
 2 -4 2 4298.83 132.701 7
 -2 -4 -2 3416.48 124.14 5
 -2 -4 -1 62322.4 433.694 5
 2 -4 1 55628.2 509.633 1
 2 4 -1 57940.8 495.612 6
 -2 4 1 63310.1 503.808 8
 -2 -4 -1 65009.6 730.384 2
 2 -4 1 58266.4 511.033 3
 -2 -4 -1 53342.7 554.452 3
 -2 -4 0 1396.06 115.635 1
 2 -4 0 1246.59 66.2399 1
 2 4 0 1206.81 45.4963 4
 2 4 0 1634.89 79.6945 6
 2 -4 0 1143.05 79.553 4
 2 -4 0 1215.92 80.7968 3
 -2 4 0 1678.87 73.8198 8
 2 4 1 61859.7 395.426 6
 2 -4 -1 61006.8 560.806 4
 -2 4 -1 56939.5 404.283 8
 2 -4 -1 54872.2 314.346 1
 -2 -4 1 66981.6 430.765 3
 2 -4 -2 3023.97 123.002 6
 -2 -4 2 3255.07 173.794 1
 2 -4 -2 3111.16 142.44 3
 -2 4 -2 3448.55 76.7518 8
 2 4 2 3559.3 150.204 7
 2 -4 -3 64791.8 623.474 4
 -2 4 -3 75216.9 668.299 5
 -2 -4 3 63568.6 776.383 1
 2 -4 -3 62697.9 642.691 3
 -2 -4 3 72675.8 718.877 8
 2 -4 -3 61955.8 574.504 6
 2 4 4 6033.88 199.985 7
 -2 -4 4 6352.55 317.574 2
 -2 4 -4 5569.88 192.479 5
 -2 -4 4 5847.22 201.042 8
 2 -4 -4 5842.54 181.094 6
 2 -4 -4 5973.13 209.087 3
 -2 -4 4 5561.79 240.062 1
 2 4 5 127001 953.087 7
 2 -4 -5 126025 977.294 4
 2 -4 -5 140201 922.982 6
 -2 -4 5 125120 1548.24 2
 -2 4 -5 138688 1015.87 5
 2 -4 -6 7343.37 228.868 6
 2 -4 -6 6835.64 238.161 4
 -2 -4 6 5995.6 226.102 8
 2 -4 -6 6487.94 236.481 3
 -2 -4 6 6460.86 266.893 1
 -2 4 -6 7007.22 278.579 3
 -2 -4 6 6683.26 381.916 2
 -2 -4 7 33354.1 560.942 8
 2 -4 -7 35929 572.453 3
 -2 4 -7 31274.3 504.906 5
 2 -4 -7 37154.7 560.696 6
 -2 -4 7 36565.8 935.067 2
 2 4 7 37178.5 387.332 1
 -2 4 -7 34964.1 615.723 3
 2 4 7 37000.3 534.357 7
 2 -4 -7 42003.6 621.869 4
 -2 -4 7 28768.1 644.795 1
 2 -4 -8 18312.3 438.886 4
 -2 -4 8 17084.9 421.48 8
 2 -4 -8 18649.2 430.357 3
 2 4 8 17932.2 385.479 7
 -2 -4 8 15400.2 644.575 2
 2 4 8 20614.3 449.935 8
 2 -4 -8 15927.8 378.788 6
 -2 4 -8 17637.4 399.474 6
 -2 -4 8 17149.7 453.564 1
 2 4 8 14009.1 334.51 1
 -2 4 -8 16979.4 389.022 5
 2 -4 -9 16826.5 418.603 3
 -2 -4 9 15962.2 423.895 8
 2 4 9 17685.5 442.341 1
 2 -4 -9 16736.3 422.242 4
 -2 4 -9 16813.3 403.86 6
 2 4 9 17055.9 419.866 8
 -2 -4 9 16615.3 691.624 2
 -2 4 -9 18919.2 482.811 3
 -2 -4 9 14199.6 427.543 1
 2 -4 -9 16828.9 420.418 6
 -2 -4 10 15889.7 463.964 1
 -2 4 -10 17141.8 415.4 6
 2 4 10 17483.3 436.598 8
 2 4 10 13913.1 404.779 1
 2 -4 -10 18284 444.743 3
 -2 4 -10 14726.1 400.27 5
 -2 -4 10 19218.3 762.788 2
 2 4 10 17257.4 411.305 7
 2 -4 -10 18311.6 454.42 4
 2 4 11 3157.94 184.752 7
 2 4 11 3598.58 218.168 1
 2 4 11 3590.51 204.764 8
 -2 -4 11 3969.34 369.653 2
 -2 4 -11 3827.24 223.014 5
 2 -4 -11 4127.1 224.747 4
 -2 4 -12 9934.57 325.324 6
 2 4 12 8755.64 318.183 8
 2 -4 -12 8710.48 320.095 3
 2 4 12 9577.54 325.01 7
 -2 4 -12 8212.83 317.416 5
 2 4 13 1358.69 131.752 8
 2 4 13 1361.3 129.142 7
 -2 4 -13 1187.37 124.543 6
 -2 -4 13 1539.62 254.225 2
 -2 -4 13 1193.81 142.962 1
 2 -4 -13 1468.99 150.957 4
 -2 4 -13 1044.27 146.04 5
 2 -4 -13 1303.03 133.624 3
 2 -4 -14 8489.23 354.017 4
 -2 4 -14 8375.52 343.489 5
 -2 -4 14 7025.86 338.934 1
 2 4 14 8398 326.175 8
 2 -4 -14 7307.12 301.449 3
 2 4 14 9220.69 339.792 7
 -2 4 -14 7241.99 303.023 6
 -2 4 -15 263.655 70.6258 5
 2 4 16 3038.53 205.421 8
 -2 -4 16 2929.44 225.288 1
 -2 4 -16 2840.24 190.399 6
 2 -4 -16 2966.75 193.439 3
 -2 5 15 919.534 102.273 8
 2 -5 15 946.537 128.127 1
 2 5 -15 1020.68 115.752 6
 -2 -5 -15 1022.91 121.689 3
 -2 5 14 1573.98 131.677 8
 2 -5 14 1410.81 151.589 1
 2 5 -14 1553.76 134.326 6
 -2 5 13 1327.49 121.617 8
 2 -5 13 1227.33 142.526 1
 2 5 -13 1143.54 120.92 6
 -2 5 12 7577.15 279.064 8
 2 5 -12 6965.12 283.03 6
 2 -5 12 7435.69 328.957 1
 2 -5 11 146.788 67.3966 1
 -2 -5 -11 150.319 69.2615 3
 2 5 -11 138.355 56.8048 6
 -2 5 11 136.213 48.2907 8
 2 5 -10 28466.6 548.244 6
 -2 -5 -10 25533.4 602.119 5
 -2 5 10 26663.1 510.057 8
 -2 -5 -10 31841.8 637.768 3
 2 -5 10 20974.3 604.564 1
 2 5 -9 341.238 73.6142 6
 -2 -5 -9 295.823 80.7338 3
 2 -5 9 348.039 83.0806 7
 -2 5 9 297.106 64.0768 8
 2 -5 9 269.002 65.1487 4
 -2 -5 -9 247.158 71.5444 5
 -2 -5 -9 209.756 67.2459 2
 2 -5 8 44936 687.729 4
 -2 -5 -8 47009.7 774.456 5
 -2 -5 -8 55310.7 797.201 2
 2 -5 8 52414.5 875.834 7
 -2 5 8 54232.1 720.24 8
 2 -5 8 49727.6 780.689 1
 -2 -5 -8 57925.7 842.86 3
 2 5 -8 47743.8 680.245 6
 2 -5 7 4871.45 207.543 4
 -2 -5 -7 3919.01 213.936 5
 -2 -5 -7 3629.28 200.326 2
 -2 -5 -7 3950.69 213.251 3
 2 -5 7 5088.63 245.239 1
 2 -5 7 3761.96 229.006 7
 -2 5 7 4307.25 185.804 7
 -2 5 7 4242.03 196.709 8
 2 5 -7 4090.95 194.547 6
 -2 -5 -6 83467.7 958.626 2
 2 -5 6 88980.3 987.389 1
 -2 -5 -6 78677.1 913.806 3
 2 -5 6 75752.3 963.185 7
 -2 5 6 85558.2 847.336 8
 -2 -5 -6 87607.6 960.004 5
 2 -5 6 82662.7 899.31 4
 2 5 -6 84304.8 847.017 6
 -2 -5 -5 31332.1 542.418 3
 -2 5 5 31085.7 396.573 7
 -2 5 5 33979.3 512.622 8
 2 -5 5 34001.2 590.442 7
 2 5 -5 32999.2 507.776 6
 -2 -5 -5 35690.9 575.599 5
 2 -5 5 35993.2 550.216 4
 2 5 -4 108312 899.666 6
 2 -5 4 103820 988.539 7
 -2 5 4 106267 893.86 8
 -2 -5 -4 112152 949.049 5
 2 -5 4 111536 955.532 4
 2 -5 3 110368 935.876 1
 -2 -5 -3 102786 900.934 3
 -2 5 3 97177.1 806.988 8
 2 5 -3 91056.5 778.477 6
 2 -5 3 107363 863.971 4
 -2 -5 -3 96577.2 812.689 5
 -2 -5 -3 93764.7 935.043 2
 2 -5 2 63095.6 631.439 4
 -2 -5 -2 65879.5 778.846 2
 -2 5 1 216020 1043.32 8
 2 -5 1 217171 1113.35 1
 2 -5 1 218437 1194.28 4
 -2 5 0 158727 978.871 5
 2 5 0 150000 785.406 6
 -2 -5 0 165011 1232.56 2
 -2 5 0 141390 746.058 8
 -2 -5 0 142832 778.512 3
 -2 -5 0 150541 1204.31 1
 2 -5 0 139699 908.894 3
 2 5 0 140823 1025.09 7
 -2 5 -1 214421 1173.19 5
 -2 5 -1 222898 825.584 8
 2 -5 -1 204905 684.168 1
 2 5 1 217325 865.319 6
 2 5 1 229096 1299.83 7
 -2 -5 1 225123 1506.59 1
 2 -5 -1 210517 1174.91 4
 -2 -5 1 204800 764.771 3
 -2 -5 1 232103 1535 2
 2 5 2 66879.3 686.074 7
 -2 5 -2 55400.9 287.957 8
 -2 -5 2 60290.8 795.225 1
 2 -5 -2 69055.7 649.797 4
 -2 -5 2 52681.1 766.333 2
 -2 5 -2 52534.6 550.297 5
 2 -5 -2 65458.8 676.697 3
 2 -5 -3 85581.8 691.807 6
 2 -5 -3 101652 865.771 3
 2 5 3 105487 869.225 7
 -2 -5 3 103204 1137.76 2
 -2 5 -3 71777.1 685.615 5
 2 -5 -3 110803 867.339 4
 -2 -5 3 99966.2 1029.62 1
 -2 -5 3 86465.5 841.691 8
 -2 -5 4 108372 914.14 8
 2 5 4 101604 883.481 7
 2 -5 -4 92797.5 738.394 6
 2 -5 -4 99361.3 889.162 4
 -2 -5 4 109797 1306.76 2
 -2 5 -5 28310.3 443.045 5
 2 -5 -5 24067.7 403.655 6
 -2 -5 5 35824 654.643 1
 2 -5 -5 31095.5 512.055 3
 2 5 5 31772.3 486.401 7
 -2 -5 5 26213.7 713.48 2
 2 -5 -5 28470.1 467.912 4
 2 -5 -6 82853.1 885.099 3
 -2 -5 6 72647.4 833.548 8
 -2 5 -6 77323.6 942.29 3
 -2 -5 6 95369.5 1093.73 1
 2 -5 -6 87185.3 905.097 4
 2 5 6 72935.3 753.96 7
 -2 5 -6 80363 833.854 5
 -2 5 -7 2893.97 186.582 3
 2 -5 -7 3536.76 186.692 4
 2 -5 -7 3829.36 197.638 3
 2 5 7 4357.4 131.349 1
 -2 -5 7 3967.93 229.89 1
 -2 -5 7 2998.86 174.605 8
 2 -5 -7 3381.1 166.893 6
 -2 5 -7 3484.71 177.184 6
 2 5 7 3520.07 172.428 7
 -2 -5 7 3132.93 278.641 2
 -2 5 -7 3230.79 168.438 5
 2 -5 -8 44005.5 673.636 3
 2 5 8 27600.9 445.017 1
 -2 5 -8 43258.5 648.617 6
 -2 -5 8 39295.3 1042.51 2
 2 5 8 46345.8 634.21 7
 2 -5 -8 49253.3 728.032 4
 2 5 8 49498.5 708.923 8
 -2 -5 8 36795.3 715.774 1
 -2 5 -8 36534.7 581.66 5
 2 5 9 837.405 102.944 8
 2 5 9 765.443 101.226 1
 2 -5 -9 732.899 98.1546 4
 -2 5 -9 821.73 96.7539 6
 2 5 9 665.795 82.7213 7
 2 -5 -9 690.882 95.1577 3
 2 5 10 26594.7 519.31 7
 -2 -5 10 26274.5 924.827 2
 -2 5 -10 27805.1 541.929 6
 -2 5 -10 22859 510.076 5
 2 -5 -10 25733.7 540.747 3
 -2 -5 10 21662.2 573.952 1
 2 5 10 26075 542.408 8
 2 -5 -10 27266.7 586.876 4
 2 5 11 329.126 71.1049 8
 2 -5 -11 398.801 81.1796 4
 -2 5 -11 400.735 76.9511 6
 -2 5 -11 348.865 76.0285 5
 -2 -5 11 468.929 96.5022 1
 2 -5 -11 249.637 67.2975 3
 -2 -5 11 611.557 158.603 2
 2 5 11 296.593 62.2819 7
 2 5 12 7064.01 291.845 8
 2 -5 -12 7793.74 309.779 3
 -2 -5 12 7346.12 521.861 2
 -2 -5 12 7664.86 350.992 1
 2 5 12 6734.06 277.518 7
 -2 5 -12 8197.9 302.255 6
 2 -5 -12 8472.06 350.49 4
 -2 5 -12 7038.66 297.597 5
 -2 5 -13 1094.74 146.054 5
 -2 -5 13 1302.35 154.955 1
 2 5 13 1419.49 131.967 8
 2 5 13 1290.34 126.203 7
 -2 5 -14 1572.16 143.852 6
 2 -5 -14 1747.07 152.753 3
 -2 -5 14 1467.41 164.162 1
 2 5 14 1649.03 147.894 8
 2 5 14 1446.5 140.218 7
 -2 5 -14 1853.46 169.208 5
 2 5 15 825.23 103.921 8
 2 -5 -15 1170.99 133.046 3
 2 5 15 870.372 113.978 7
 -2 5 -15 1022.74 120.649 6
 -2 -5 15 900.649 130.959 1
 -2 -6 -15 1005.23 120.337 3
 2 6 -15 955.044 112.873 6
 -2 6 15 1034.24 108.145 8
 2 -6 15 1006.67 131.629 1
 -2 -6 -13 1916.46 165.231 3
 -2 6 13 1722.41 136.968 8
 2 -6 13 1535.61 163.033 1
 -2 -6 -12 3909.58 229.539 3
 2 6 -12 3833.06 210.741 6
 -2 6 12 3567.31 192.962 8
 2 -6 12 3502.12 235.76 1
 -2 -6 -11 6602.21 296.836 3
 2 6 -11 5874.01 259.068 6
 -2 6 11 5520.08 237.525 8
 2 -6 11 5949.76 297.993 1
 -2 -6 -10 5299.47 268.466 3
 2 6 -10 5153 239.199 6
 -2 6 10 5004.43 229.504 8
 -2 -6 -9 11772.3 394.839 2
 -2 -6 -9 15594.1 452.649 3
 2 -6 9 15893.2 421.327 4
 2 -6 9 12869.8 427.201 1
 2 6 -9 13371.7 377.262 6
 -2 6 9 13854.7 401.419 8
 -2 6 8 5086.72 224.433 8
 -2 -6 -8 5169.61 255.333 3
 -2 -6 -8 4353.89 229.997 2
 -2 -6 -8 5284.26 259.772 5
 2 -6 8 5306.14 242.951 4
 2 -6 8 4589.87 280.394 1
 2 6 -8 6095.37 248.77 6
 -2 -6 -7 36222.1 646.992 5
 -2 -6 -7 37735.2 656.953 2
 -2 -6 -6 17129.9 417.098 5
 2 6 -6 16296.5 384.547 6
 2 -6 6 16984.9 405.832 4
 2 -6 6 16811.8 459.577 1
 2 6 -5 54168.5 685.706 6
 2 -6 5 65716.4 794.788 4
 2 -6 5 61962.5 828.446 1
 -2 -6 -5 59402.1 805.767 2
 -2 -6 -5 58895.3 794.394 3
 -2 6 5 54004.8 681.435 8
 2 -6 4 35974.6 553.393 4
 -2 -6 -4 34210.8 602.909 2
 -2 6 3 41987.8 543.51 8
 2 -6 3 47720.7 659.114 1
 -2 -6 -3 50729.3 660.645 3
 2 6 -3 41701.4 546.675 6
 2 -6 3 39634.2 577.652 4
 2 -6 2 26678.9 435.029 4
 2 6 -2 23010.7 385.667 6
 2 -6 2 23737.4 428.646 1
 -2 -6 -2 33119.5 491.003 3
 -2 6 2 27126.7 425.118 8
 -2 -6 -2 31820.5 571.486 2
 2 -6 1 30005.6 419.808 3
 -2 -6 -1 30209.9 423.87 3
 2 -6 1 30907.8 437.814 1
 2 -6 1 38591.2 525.941 4
 -2 -6 -1 30011 545.137 2
 2 6 -1 36636.2 436 6
 -2 -6 0 29786.8 560.641 2
 2 6 0 32371.8 379.725 6
 2 -6 0 29749.8 364.452 1
 2 6 0 31501.9 513.583 7
 -2 6 0 28954.9 350.516 8
 2 -6 0 27603.6 428.761 4
 2 -6 0 32577.5 455.695 3
 -2 -6 0 28996.6 563.778 1
 -2 -6 0 29859.3 356.426 3
 -2 -6 1 31523.2 592.956 2
 2 -6 -1 22853.7 217.57 1
 -2 -6 1 29179.4 589.707 1
 2 -6 -1 26277.4 441.223 4
 2 6 1 29494.7 475.679 7
 2 -6 -1 31429.1 470.222 3
 -2 -6 1 26893.8 251.902 3
 2 -6 -2 27313.2 535.758 3
 2 -6 -2 30968.3 460.854 4
 -2 6 -2 30835.5 441.945 5
 2 6 2 28975.6 481.656 7
 -2 -6 2 34740.9 617.63 1
 -2 -6 2 37145.9 657.44 2
 -2 6 -3 43480.2 560.429 5
 2 6 3 45522.6 603.304 7
 2 -6 -4 40488.9 592.191 3
 2 -6 -4 38805.9 550.85 4
 -2 6 -4 36174.3 516.946 5
 -2 -6 4 37780.2 676.968 1
 -2 -6 4 38603.5 758.403 2
 2 -6 -5 62870.3 768.091 3
 -2 6 -5 75308.1 754.683 5
 -2 -6 5 57274.4 881.38 1
 -2 -6 5 52893.9 999.844 2
 2 6 5 53436.5 679.47 7
 2 -6 -5 68379.9 800.441 4
 -2 6 -6 16076.3 369.204 5
 2 -6 -6 17488.4 417.588 3
 2 6 6 17695.1 379.283 7
 -2 -6 6 17362.3 492.966 1
 -2 -6 7 32461.9 886.42 2
 -2 6 -7 29546.7 516.532 5
 -2 6 -7 34873.6 578.225 6
 -2 -6 7 26469.1 639.069 1
 2 -6 -7 38897.3 630.484 3
 2 6 7 37349.8 626.656 8
 2 6 7 36642.8 582.559 7
 2 -6 -7 35574.1 596.958 4
 2 -6 -8 6767.61 279.815 4
 -2 6 -8 4798.02 217.377 5
 -2 6 -8 7574.19 277.509 6
 -2 -6 8 7966.47 351.602 1
 -2 -6 8 6038.74 412.47 2
 2 6 8 6326.27 266.94 8
 2 -6 -8 6084.38 264.342 3
 2 6 8 6297.91 241.526 7
 -2 6 -9 12611.5 354.453 5
 -2 6 -9 11847.1 352.697 6
 -2 -6 9 11437.1 418.743 1
 2 -6 -9 11049.5 365.295 3
 2 6 9 11577.8 366.476 8
 2 6 9 11833.4 336.739 7
 2 -6 -10 4862.41 258.212 4
 -2 -6 10 5283.45 287.625 1
 -2 6 -10 4102.14 214.661 5
 2 6 10 4020.2 205.643 7
 -2 6 -10 4576.26 228.536 6
 -2 -6 10 3765.9 353.956 2
 2 6 10 4953.19 241.074 8
 2 -6 -10 5000.99 245.195 3
 -2 6 -11 4844.99 251.016 5
 -2 -6 11 5039.9 293.111 1
 -2 6 -11 5660.39 248.527 6
 2 6 11 6004.91 266.897 8
 2 -6 -11 5406.74 255.105 3
 2 6 12 3081.58 190.607 7
 -2 6 -12 3527.52 216.496 5
 -2 6 -12 3685.63 205.192 6
 -2 -6 12 3881.09 255.095 1
 2 6 12 3189.22 199.131 8
 2 -6 -12 3305.24 205.27 3
 -2 6 -13 1670.55 140.398 6
 -2 -6 13 1503.6 166.959 1
 2 -6 -13 2113.82 169.139 3
 2 6 13 1922.78 152.582 8
 -2 6 -15 1173.01 127.212 6
 2 6 15 1186.08 119.724 8
 2 -6 -15 1117.16 121.293 3
 2 -7 14 441.682 100.891 1
 -2 -7 -14 357.229 78.7626 3
 -2 7 14 347.505 67.0358 8
 2 7 -14 271.914 66.2885 6
 -2 -7 -13 1077.66 126.915 3
 -2 7 13 991.01 107.508 8
 2 7 -13 1071.41 115.323 6
 2 -7 13 914.865 127.86 1
 -2 7 12 409.872 73.8713 8
 -2 -7 -12 423.67 90.0362 3
 2 7 -12 428.023 81.3275 6
 2 -7 12 304.822 86.4358 1
 2 -7 11 2232.18 197.482 1
 -2 -7 -11 2358.6 181.731 3
 -2 7 11 1754.46 139.852 8
 2 7 -11 1627.35 143.841 6
 2 -7 10 2877.46 217.443 1
 2 7 -10 2854.85 183.953 6
 -2 7 10 2817.03 174.193 8
 -2 -7 -10 2809.22 200.775 3
 -2 -7 -9 9701.5 355.968 3
 2 7 -9 9823.18 330.033 6
 2 -7 8 5016.82 241.218 4
 2 -7 8 5315.92 282.839 1
 -2 7 8 5695.42 252.909 8
 -2 -7 -8 5689 263.164 2
 -2 7 7 36652.1 597.446 8
 2 -7 7 42942.8 658.811 4
 2 7 -7 36640.3 614.618 6
 -2 -7 -7 40340.8 725.069 3
 2 -7 7 37181.4 711.668 1
 -2 -7 -7 33533.2 663.445 2
 2 7 -6 1190.95 115.498 6
 -2 7 6 1206.5 113.619 8
 -2 -7 -6 1071.81 121.709 3
 2 -7 6 1402.2 140.394 1
 -2 -7 -5 65504 846.262 3
 -2 -7 -5 59186.4 821.764 2
 2 7 -5 64018.5 777.867 6
 2 -7 5 62110.4 787.575 4
 -2 7 5 65332.7 778.687 8
 2 -7 5 60451.8 874.529 1
 -2 7 4 2923.33 161.533 8
 -2 -7 -4 2580.05 167.56 3
 2 7 -4 2569.42 151.854 6
 2 -7 4 2724.87 178.752 1
 2 -7 3 139998 1211.16 1
 -2 -7 -3 165881 1248.9 3
 2 7 -3 165860 1160.32 6
 2 -7 3 188005 1302.77 4
 -2 -7 -3 150882 1315.93 2
 -2 7 2 3411.85 183.965 8
 2 -7 2 5003.57 215.314 1
 -2 -7 -2 4381.76 190.024 3
 2 7 -2 5000.3 192.115 6
 -2 -7 -2 6172.88 266.029 2
 2 -7 1 218685 1257.41 3
 2 -7 1 193801 1245.41 1
 -2 7 1 185039 1113.57 8
 2 -7 1 243387 1396.59 4
 2 7 -1 205171 1457.26 7
 -2 -7 -1 214583 1579.9 2
 2 7 -1 225827 1197.01 6
 -2 -7 0 13580.8 393.973 2
 2 7 0 13454.2 356.192 7
 2 -7 0 12770.4 303.702 3
 -2 7 0 12398.7 245.591 8
 -2 7 0 11981 302.275 5
 2 7 0 12756.1 250.996 6
 -2 -7 0 13075.4 400.647 1
 2 -7 0 12239.3 267.04 1
 -2 -7 0 12562.6 238.022 3
 2 -7 -1 200957 1307.29 4
 -2 -7 1 205929 1660.91 1
 2 7 1 208064 1407.29 7
 2 -7 -1 201290 1298.22 3
 -2 -7 1 210184 1573.27 2
 -2 7 -1 203016 1254.73 5
 -2 7 -2 5955.29 205.492 5
 2 7 2 5009.88 212.947 7
 2 -7 -2 4611.26 188.921 4
 -2 -7 2 5988.81 281.442 2
 2 -7 -3 168982 1194.99 4
 -2 -7 3 151075 1441.39 2
 2 -7 -3 164529 1309.9 3
 -2 -7 3 146876 1428.78 1
 2 -7 -4 2816.09 163.428 4
 -2 -7 4 3013.61 218.112 2
 2 -7 -4 2998.58 173.871 3
 -2 -7 4 3005.34 213.472 1
 -2 7 -4 2520.29 147.958 5
 2 -7 -5 60372 780.716 3
 -2 7 -5 61178.2 705.297 5
 -2 -7 5 62034.7 948.036 1
 2 7 6 1603.88 121.409 7
 2 -7 -6 1661.82 136.33 4
 -2 -7 6 1572.63 180.042 2
 -2 7 -7 44357.5 651.451 5
 2 -7 -7 31394.2 621.435 4
 -2 7 -7 33639.1 607.229 6
 2 -7 -7 39575.5 667.698 3
 2 7 7 37969.4 648.683 8
 2 7 7 38077.2 616.107 7
 -2 -7 7 34428.1 902.841 2
 -2 -7 7 36976.2 761.326 1
 2 -7 -8 7450.74 301.475 3
 -2 -7 8 6396.33 325.637 1
 -2 7 -8 5100.99 229.726 5
 -2 7 -8 7214.57 286.759 6
 -2 -7 8 6240.81 400.722 2
 2 7 8 7002.58 287.338 8
 2 7 8 6054.57 244.191 7
 2 7 9 7041.73 268.184 7
 -2 7 -9 3576.6 193.253 5
 -2 -7 10 3470.89 248.814 1
 2 -7 -10 3684.62 215.498 3
 2 7 10 2965.97 182.653 7
 -2 7 -10 3791.62 208.517 6
 2 7 10 3469.6 211.517 8
 -2 -7 11 2100.64 197.922 1
 2 -7 -11 1775.84 157.651 3
 2 7 11 1356.66 134.361 7
 2 7 11 1744.05 150.968 8
 -2 7 -11 1789.97 148.645 6
 -2 -7 12 581.739 114.04 1
 -2 7 -12 700.452 97.6244 6
 2 7 12 534.333 87.7012 8
 2 -7 -12 634.324 101.547 3
 -2 7 -13 589.383 93.1973 6
 -2 -7 13 753.306 124.167 1
 2 7 13 845.774 104.534 8
 2 -7 -13 724.78 106.578 3
 2 -7 -14 185.882 61.7328 3
 -2 7 -14 217.067 67.351 6
 2 7 14 257.96 68.3697 8
 -2 -7 14 358.278 86.3289 1
 2 -8 14 255.009 78.0614 1
 -2 8 14 172.464 55.1587 8
 -2 -8 -14 259.608 72.9856 3
 2 8 -14 79.9875 46.7228 6
 -2 -8 -13 975.771 123.253 3
 -2 8 13 859.01 100.59 8
 2 -8 13 863.543 126.208 1
 2 8 -13 889.108 107.216 6
 -2 -8 -12 791.068 112.853 3
 -2 8 12 817.794 99.0916 8
 2 -8 12 848.341 131.685 1
 2 8 -12 1071.96 116.76 6
 -2 8 11 1791.4 143.333 8
 -2 8 10 3947.9 207.624 8
 2 -8 10 4224.5 266.331 1
 2 8 -10 4097.88 220.535 6
 -2 -8 -9 6766 305.246 3
 -2 8 9 5805.07 251.215 8
 2 -8 9 6625.41 332.234 1
 -2 -8 -8 6778.26 292.34 2
 2 -8 8 7679.38 297.426 4
 -2 -8 -8 9575.28 353.496 3
 2 8 -8 9606.98 329.817 6
 -2 8 8 6318.3 272.861 8
 -2 -8 -7 8630.29 343.29 2
 2 -8 7 10397.7 334.465 4
 2 8 -7 9040.17 317.282 6
 -2 8 7 9513.58 319.691 8
 2 -8 7 9516.4 393.308 1
 -2 -8 -7 10870.2 367.557 3
 -2 8 6 14041.7 375.752 8
 2 8 -6 14956.6 402.434 6
 -2 -8 -6 14898.9 442.87 2
 -2 -8 -5 11191.9 385.395 2
 -2 8 5 12380.8 345.071 8
 -2 -8 -5 11223.9 357.6 3
 2 8 -5 11347.5 344.965 6
 2 -8 4 31556 634.317 1
 -2 -8 -4 30441.1 608.058 2
 2 -8 4 29298.7 563.712 4
 -2 -8 -4 34671.5 608.586 3
 -2 8 4 33013.5 550.58 8
 -2 8 3 16888 409.882 8
 2 8 -3 16380.8 379.285 6
 2 -8 3 17658 415.448 4
 -2 -8 -3 16457.2 449.337 2
 2 -8 2 38087.1 617.511 1
 -2 -8 -2 36727.6 562.483 3
 -2 -8 -1 13786 429.928 2
 2 -8 1 17502.1 366.862 3
 -2 8 1 17068.1 397.455 5
 -2 -8 -1 14212.4 318.04 3
 2 8 -1 16279.8 425.693 7
 -2 8 1 14482 312.265 8
 -2 -8 0 34680.9 689.332 1
 2 8 0 33756.9 600.209 7
 2 -8 -1 16320.8 376.754 4
 -2 -8 1 15340.4 485.293 1
 -2 -8 2 36857.9 754.415 1
 2 -8 -2 34277 586.09 3
 2 8 2 38375.7 621.971 7
 -2 8 -2 40239.9 580.416 5
 2 -8 -2 36454.3 583.493 4
 -2 -8 3 15238.8 478.967 1
 2 -8 -3 14519.4 369.567 4
 -2 8 -4 47092.6 631.835 5
 2 -8 -4 44526.2 667.328 4
 2 -8 -4 33320 614.774 3
 -2 -8 4 34205.7 735.595 1
 2 8 4 41214.4 621.952 7
 -2 -8 5 11316 469.231 2
 -2 8 -5 11182.9 313.187 5
 2 8 5 12140.7 350.645 7
 -2 -8 6 15177.1 511.712 1
 2 -8 -6 14860.8 412.102 3
 2 8 6 13808.5 406.595 8
 -2 8 -6 13658.7 385.889 6
 2 8 6 13759.3 358.78 7
 2 -8 -7 8537.14 314.305 3
 -2 8 -7 8046.3 297.542 6
 -2 -8 7 7950.59 373.533 1
 2 8 8 7557.35 278.477 7
 -2 8 -8 7769.45 293.78 6
 -2 -8 8 7478.77 364.656 1
 -2 -8 9 5453.17 313.482 1
 2 -8 -9 5340.95 270.893 3
 -2 8 -9 6078.73 269.715 6
 2 8 9 5946 275.013 8
 -2 -8 10 4369.53 282.449 1
 2 -8 -10 4041.74 242.243 3
 -2 8 -10 4810.89 235.04 6
 2 8 10 4404.83 242.924 8
 -2 -8 11 2144.84 201.612 1
 2 -8 -11 2352.55 178.35 3
 2 8 11 2461.96 177.235 8
 -2 -8 12 719.064 125.778 1
 2 -8 -12 725.464 103.183 3
 -2 8 -12 704.412 98.1766 6
 2 8 12 580.878 90.8392 8
 2 -8 -13 791.446 106.848 3
 -2 -8 13 782.895 128.291 1
 2 8 13 711.657 99.3971 8
 -2 8 -13 827.061 107.77 6
 -2 -8 14 204.674 78.7414 1
 -2 8 -14 259.547 72.6677 6
 2 -8 -14 180.608 63.3546 3
 2 8 14 190.532 62.4056 8
 2 -9 13 328.686 89.271 1
 2 9 -13 260.162 65.272 6
 -2 9 13 318.321 68.6772 8
 -2 -9 -12 384.241 87.1423 3
 2 -9 12 487.254 104.006 1
 2 9 -12 553.476 91.7424 6
 2 -9 11 424.49 98.3812 1
 -2 9 11 440.429 76.6601 8
 -2 -9 -11 463.251 91.2209 3
 2 9 -11 501.174 82.9029 6
 -2 -9 -10 1432.78 149.517 3
 2 -9 10 1701.77 182.447 1
 2 -9 9 1754.57 182.691 1
 2 9 -9 1736.99 150.088 6
 -2 9 9 2021.2 153.63 8
 -2 -9 -9 1811.19 167.231 3
 2 -9 8 2261.57 167.34 4
 -2 -9 -8 2699.32 190.307 2
 2 -9 8 2223.8 198.908 1
 2 9 -8 2194.78 168.752 6
 -2 9 8 2495.45 169.519 8
 -2 -9 -8 2380.21 189.01 3
 2 -9 7 4334.84 228.773 4
 2 -9 7 3941.26 257.211 1
 -2 -9 -7 4168.52 238.121 2
 2 9 -7 4945.97 242.642 6
 -2 -9 -7 4142.4 237.916 3
 -2 -9 -6 9250.76 350.11 3
 -2 9 6 8480.63 315.159 8
 2 9 -6 8088.54 307.668 6
 2 -9 6 9513.38 396.805 1
 -2 -9 -5 18369.4 499.153 2
 -2 9 5 17572.2 432.425 8
 2 -9 4 47345 827.363 1
 -2 -9 -4 45766.3 739.938 3
 -2 -9 -3 35486.8 609.412 3
 2 -9 3 42663.6 777.815 1
 -2 -9 -3 32664.9 657.628 2
 -2 9 3 38677.8 608.806 8
 2 -9 3 29918.2 607.462 4
 2 9 -3 39325 613.907 6
 -2 -9 -2 63464.8 915.719 2
 2 9 -2 67781.7 948.698 7
 -2 -9 -1 63378.6 912.395 2
 -2 9 1 59713.2 778.732 5
 2 -9 0 83050.3 876.512 3
 2 9 0 74457.6 944.356 7
 -2 -9 0 79395.4 1111.78 1
 2 -9 0 62430.7 799.775 4
 -2 -9 0 75982.4 1018.64 2
 -2 9 0 64675.5 813.382 5
 2 9 1 71570.4 916.695 7
 -2 9 -1 71084.3 820.787 5
 2 -9 -2 64896.5 823.228 3
 -2 -9 2 63281.1 973.033 2
 2 9 3 36747.8 624.955 7
 2 -9 -3 36426 641.398 3
 -2 -9 3 34824.9 769.505 1
 2 -9 -4 39916 747.62 3
 2 9 4 44010.1 681.977 7
 2 9 5 17333.5 462.632 8
 -2 -9 5 17537.1 561.224 1
 2 -9 -5 18855.2 480.427 3
 2 9 6 9673.98 351.074 8
 -2 9 -6 9002.15 334.47 6
 -2 -9 6 9970.14 429.693 1
 2 -9 -6 10282.2 360.313 3
 -2 9 -7 3947.45 218.507 6
 -2 -9 7 4664.11 309.308 1
 2 -9 -7 4504.81 241.432 3
 2 9 8 2300.49 178.066 8
 -2 9 -8 2332.77 172.332 6
 -2 -9 8 2460.62 220.526 1
 2 -9 -8 2329.66 176.391 3
 -2 9 -9 1348.15 133.99 6
 2 -9 -9 1581.02 147.073 3
 2 9 9 1406.72 150.482 8
 2 -9 -11 523.358 92.7275 3
 2 9 11 374.13 78.966 8
 -2 -9 11 527.595 113.567 1
 2 -9 -13 393.896 80.0193 3
 2 9 13 388.687 76.448 8
 -2 -9 13 359.32 95.3872 1
 -2 9 -13 443.158 86.2888 6
 -2 -10 -12 574.22 103.557 3
 2 -10 12 827.783 130.723 1
 2 10 -12 530.317 93.8927 6
 -2 10 12 550.078 85.5802 8
 -2 -10 -11 381.943 89.8759 3
 2 -10 11 453.339 98.5211 1
 -2 10 11 537.371 85.887 8
 -2 -10 -10 1407.59 147.788 3
 2 -10 10 1439.26 166.88 1
 2 10 -10 1728.9 154.378 6
 -2 10 10 1449.97 129.775 8
 -2 -10 -9 1528.97 155.811 3
 2 -10 9 1294.8 163.028 1
 2 10 -9 1352.03 137.567 6
 -2 -10 -8 3990.24 242.029 3
 -2 -10 -8 3721.78 234.186 2
 -2 10 8 3726.56 209.267 8
 2 -10 8 3965.09 271.506 1
 2 10 -8 4330.24 236.74 6
 2 10 -7 8282.16 329.634 6
 2 -10 7 7253.62 304.306 4
 -2 10 7 7999.75 302.091 8
 -2 -10 -7 7938.41 338.468 3
 2 -10 6 10408.3 419.942 1
 -2 10 6 9368.4 340.651 8
 2 10 -6 10148.6 363.157 6
 -2 -10 -6 10358 378.555 3
 -2 -10 -5 12737.3 435.999 2
 2 -10 5 11742.9 451.036 1
 -2 -10 -5 11777.6 399.693 3
 -2 10 5 14008.3 403.447 8
 2 10 -5 13052.7 396.984 6
 -2 10 4 7864.48 293.486 8
 2 -10 4 6538.01 277.036 4
 2 10 -3 26551 642.762 7
 -2 -10 -3 25119.5 597.47 2
 -2 10 2 4365.15 232.636 5
 2 -10 2 4043.68 230.079 4
 -2 -10 -1 21078.9 546.505 2
 2 10 -1 22057 557.929 7
 2 10 0 452.586 86.2606 7
 -2 -10 0 262.804 71.9744 2
 -2 -10 1 21656.6 630.096 1
 2 -10 -1 20464.3 474.728 3
 2 -10 -2 4882.78 232.891 3
 -2 -10 2 5465.59 333.136 1
 2 -10 -3 23740.5 536.508 3
 -2 -10 3 24602.5 704.155 1
 2 10 4 8776 342.131 8
 -2 -10 4 8130.91 399.524 1
 2 -10 -4 8406.8 330.476 3
 2 10 5 10452.7 374.569 8
 -2 -10 5 10449.8 457.379 1
 2 -10 -5 9245.97 355.243 3
 -2 10 -5 10657.4 358.235 6
 -2 10 -6 10050.4 356.469 6
 -2 -10 7 8028.57 406.476 1
 2 -10 -7 8035.86 336.878 3
 -2 10 -7 8218.14 329.546 6
 2 10 8 3625.83 224.785 8
 -2 -10 8 3864.45 284.148 1
 2 -10 -8 3873.12 237.905 3
 -2 10 -8 4055.42 226.502 6
 2 10 10 1583.69 146.714 8
 2 -10 -10 1537.32 151.362 3
 -2 -10 10 1579.26 185.486 1
 -2 10 -10 1263.09 133.363 6
 -2 -10 11 458.19 109.368 1
 -2 10 -11 522.503 90.9279 6
 2 10 12 611.318 94.0833 8
 2 -10 -12 532.879 100.449 3
 -2 10 -12 618.275 102.51 6
 -2 -11 -11 505.925 98.6653 3
 2 -11 11 488.234 110.142 1
 -2 11 11 432.118 78.2136 8
 2 11 -11 676.382 98.086 6
 -2 -11 -10 425.319 93.7763 3
 2 -11 10 519.88 114.147 1
 -2 11 10 527.744 85.2752 8
 2 11 -10 456.47 91.0046 6
 -2 -11 -9 586.284 106.466 3
 2 -11 9 568.348 120.494 1
 -2 11 9 663.002 94.8693 8
 -2 -11 -8 3419.86 237.469 3
 2 -11 8 3434.34 269.585 1
 -2 -11 -7 1561.85 165.053 3
 -2 11 7 1360.89 134.949 8
 -2 11 6 7503.52 302.198 8
 2 -11 6 8027.27 336.224 4
 2 -11 5 2385.02 176.568 4
 -2 -11 -5 1171.7 141.741 2
 2 -11 4 30878.2 626.679 4
 -2 -11 -4 21047.9 577.357 2
 -2 -11 -3 471.064 93.9219 2
 -2 -11 -2 51884.2 899.334 2
 2 -11 -3 277.797 70.1678 3
 -2 -11 3 364.97 107.432 1
 2 11 4 21405.2 546.858 8
 2 -11 -4 22511.4 554.153 3
 -2 -11 4 23519.7 738.01 1
 -2 11 -5 1545.83 154.206 6
 2 11 5 1618.25 157.492 8
 2 11 6 9813.24 373.335 8
 2 -11 -6 9088.69 374.065 3
 -2 11 -6 10327.7 366.624 6
 -2 -11 6 9954.06 475.377 1
 2 11 7 1611.39 168.037 8
 -2 11 -7 1653.74 151.293 6
 -2 -11 7 1943.25 210.753 1
 2 11 8 4659.57 253.802 8
 2 -11 -8 4841.6 269.157 3
 2 11 9 471.049 88.6771 8
 -2 -11 9 308.72 97.5698 1
 2 -11 -9 519.625 96.8596 3
 2 -11 -10 1013.77 127.185 3
 -2 11 -10 765.304 109.437 6
 -2 -11 10 910.747 151.583 1
 2 11 11 428.2 85.8352 8
 -2 -11 11 331.043 104.983 1
 2 -11 -11 491.38 92.8693 3
 -2 12 10 669.443 98.6363 8
 -2 -12 -6 6183.78 315.341 2
 -2 -12 -5 1476.77 156.023 2
 -2 -12 6 6910.81 415.029 1
 2 12 6 6193.06 305.876 8
 2 -12 -7 1087.75 135.921 3
 -2 -12 7 874.37 152.298 1
 2 12 7 990.63 125.682 8
 -2 -12 8 3003.67 267.85 1
 2 12 8 3034.26 211.471 8
 -2 12 -8 2222.71 204.494 6
 2 -12 -8 2904.36 218.971 3
 -2 12 -10 545.425 104.165 6
 2 -12 -10 597.679 104.592 3
 2 12 10 567.144 97.2709 8
 -2 -12 10 569.287 127.932 1
 2 13 9 1894.1 176.842 8
 -3 0 0 8.1872 26.1899 5
 3 0 0 6.98287 34.3301 6
 3 0 0 94.6673 35.2192 7
 3 0 0 42.362 30.6812 4
 -3 0 -1 148447 824.472 5
 3 0 1 152048 870.773 6
 3 0 -1 149955 839.401 3
 3 0 -1 154321 883.923 6
 3 0 1 131491 841.948 7
 3 0 1 171841 874.695 4
 3 0 -1 145227 824.8 4
 -3 0 1 143553 1080.22 1
 -3 0 1 163995 1302.9 2
 -3 0 -1 150010 973.093 8
 -3 0 1 147790 965.974 8
 -3 0 -1 152211 1019.08 2
 3 0 -2 37939.6 440.522 4
 3 0 -2 35916 410.572 3
 -3 0 -2 35302.1 416.77 5
 3 0 2 33294.7 416.876 7
 3 0 2 37716.2 415.711 4
 -3 0 2 35991.6 681.594 2
 3 0 -3 198130 1111.09 6
 -3 0 -3 193306 1126.55 2
 -3 0 3 189563 1682.08 2
 -3 0 3 199210 1242.29 1
 -3 0 3 190348 1121.84 8
 3 0 -3 189408 1062.06 4
 3 0 3 191782 1067.55 7
 3 0 -4 75868.3 695.745 4
 -3 0 -4 77116.9 700.093 5
 3 0 4 72855.6 655.549 4
 -3 0 4 77033.8 1142.79 2
 3 0 -4 67028.8 647.768 3
 3 0 -4 70718.3 697.923 6
 3 0 4 74886.8 672.089 7
 -3 0 4 72190.6 698.401 8
 -3 0 5 223220 1433.42 1
 3 0 5 225266 1285.19 4
 -3 0 -5 233805 1370.84 2
 -3 0 -5 233363 1758.94 3
 3 0 -5 235172 1393.51 6
 3 0 5 243667 1388.84 7
 -3 0 5 239500 1330.37 8
 3 0 -5 216240 1272.87 3
 -3 0 -5 229243 1361.49 5
 3 0 6 47136.5 591.566 4
 3 0 -6 48232.7 633.642 6
 3 0 -6 47598.4 578.022 3
 3 0 -7 94088.3 937.426 6
 3 0 7 108741 775.79 1
 -3 0 -7 83244.8 1011.3 3
 -3 0 -7 85963.5 880.08 2
 -3 0 7 97670.1 894.159 8
 -3 0 -7 86420.8 864.056 5
 3 0 -7 94850.1 860.582 3
 -3 0 7 73210.5 886.316 1
 3 0 7 86388.8 841.906 7
 3 0 8 15257.3 404.388 1
 3 0 8 15481.5 375.469 4
 -3 0 -8 15037.3 370.404 5
 -3 0 8 15907.2 372.666 8
 -3 0 -8 15665.7 434.029 3
 -3 0 -8 15400 406.236 2
 -3 0 8 14173 406.124 1
 3 0 -8 15238.9 362.713 3
 3 0 8 15984.3 372.382 7
 -3 0 -9 68367.9 776.477 6
 3 0 9 60405.7 759.403 8
 -3 0 9 63413.5 780.405 8
 3 0 -9 64161.4 791.23 3
 -3 0 -9 64766.7 806.95 5
 -3 0 9 81334.4 1022.78 1
 3 0 -9 85043.4 999.206 6
 3 0 9 70025.4 826.932 7
 -3 0 -9 63181.7 928.194 3
 3 0 10 2011.03 162.868 1
 3 0 10 1810.58 141.477 8
 -3 0 10 2905.22 207.784 1
 3 0 -10 2360.66 179.603 6
 -3 0 -10 2522.45 176.79 5
 3 0 -10 2146.06 153.332 3
 3 0 10 2194.22 152.27 7
 -3 0 -10 2050.11 178.524 3
 -3 0 10 2056.7 147.111 8
 3 0 11 36036.6 685.86 1
 3 0 11 47399.2 727.349 7
 -3 0 11 33656.7 706.418 1
 3 0 -11 39940.2 700.274 6
 -3 0 -11 39687.6 650.704 6
 -3 0 11 42458.7 749.243 8
 3 0 -11 34673.8 638.82 3
 -3 0 -11 37982.2 684.528 5
 -3 0 -11 34764.1 673.439 3
 3 0 11 38682.4 667.181 8
 -3 0 -12 208.546 60.182 6
 -3 0 -12 379.512 83.5365 3
 3 0 12 269.202 74.1622 1
 -3 0 12 239.33 79.1843 1
 -3 0 -12 279.356 73.3325 5
 3 0 12 279.294 65.806 7
 3 0 12 231.39 64.0535 8
 3 0 -12 282.343 71.9897 3
 -3 0 13 5972.48 327.395 1
 -3 0 13 6922.65 296.876 8
 3 0 13 5448.58 280.119 1
 -3 0 -13 6130.84 275.855 6
 3 0 -13 6358.61 296.79 6
 -3 0 -13 6528.41 302.625 3
 -3 0 -13 6898.1 310.177 5
 3 0 13 6362.49 279.578 7
 -3 0 -14 18.9474 47.131 5
 3 0 14 37.7926 46.8535 7
 3 0 14 13.8043 48.0729 1
 -3 0 14 19.6078 37.7215 8
 -3 0 -15 2434.89 189.411 5
 3 0 15 2343.53 192.757 1
 3 0 15 2685.17 195.006 7
 -3 0 15 2224.51 172.544 8
 3 0 -15 2364.63 189.366 6
 -3 0 15 2555.93 296.212 2
 -3 0 -15 2604.77 195.958 3
 3 0 -15 2341.62 171.471 4
 3 0 16 51.521 51.3727 1
 3 0 16 59.5589 49.2991 7
 -3 0 16 -5.77486 85.2484 2
 3 0 -16 64.8339 51.2082 4
 -3 0 -16 35.6504 51.6913 5
 3 -1 16 893.799 125.486 1
 3 1 -16 953.402 122.243 6
 -3 -1 -16 974.909 124.895 3
 3 -1 16 967.889 135.049 7
 -3 1 16 869.041 110.884 8
 -3 -1 -16 1112.29 132.676 5
 3 1 -16 866.867 109.308 4
 -3 1 16 1180.67 196.372 2
 -3 -1 -15 6710.16 315.717 3
 3 -1 15 5572.41 313.902 1
 3 -1 15 7154.05 323.999 7
 3 1 -15 8786.17 351.878 6
 -3 -1 -15 7943.76 341.432 5
 -3 1 15 7132 294.67 8
 3 -1 14 3199.56 208.004 7
 3 -1 14 2632.78 200.317 1
 -3 -1 -14 2778.89 203.7 3
 3 1 -14 2935.27 197.646 6
 -3 -1 -14 2902.45 204.894 5
 -3 1 14 2375.46 167.028 8
 3 -1 13 15768.6 456.621 7
 -3 -1 -13 14008.4 447.209 3
 3 -1 13 13850.6 442.417 1
 3 1 -13 15927.7 464.485 6
 -3 -1 -13 15781.2 465.839 5
 3 -1 12 6021.79 271.779 7
 -3 -1 -12 5629.13 277.57 3
 3 -1 12 4996.34 258.657 1
 -3 -1 -12 5655.8 276.944 5
 -3 1 12 5372.76 241.75 8
 -3 -1 -12 4823.43 238.139 6
 3 1 -11 21464.5 487.446 3
 3 -1 11 22893.7 506.248 7
 3 1 -11 27967.5 581.03 6
 -3 -1 -11 27070 609.192 3
 -3 -1 -11 23650.4 549.03 5
 3 -1 11 23546.4 559.388 1
 -3 1 11 19529.8 546.299 1
 -3 -1 -11 25100.9 506.36 6
 -3 1 11 25149.9 509.023 8
 3 -1 10 13174.2 406.521 1
 -3 1 10 13827.8 439.69 1
 -3 -1 -10 12214.3 338.667 6
 3 -1 10 13392.1 366.395 8
 3 -1 10 14548.3 394.919 7
 -3 -1 -10 13708.2 432.062 3
 3 1 -10 12528.2 356.09 3
 -3 -1 -10 13874.2 409.114 5
 3 -1 9 25784.3 484.968 8
 3 -1 9 29646.2 581.939 1
 3 -1 9 28525.8 531.501 4
 -3 -1 -9 31885.9 594.518 5
 3 -1 9 29839.8 539.677 7
 -3 -1 -9 29214.9 505.542 6
 3 1 -9 27729.4 502.4 3
 -3 1 9 30380.4 618.522 1
 3 -1 8 12024.2 311.778 8
 -3 1 8 12397 325.454 8
 -3 -1 -8 11915 347.655 2
 3 -1 8 12371.2 376.72 1
 -3 -1 -8 13860.3 361.12 5
 -3 -1 -8 12865.8 402.127 3
 3 -1 8 11292.9 325.139 7
 3 -1 8 9983.43 301.038 4
 3 -1 7 12602.1 317.944 4
 3 -1 7 13081.8 325.039 7
 -3 1 7 14645.2 340.431 8
 3 1 -7 13331.5 310.91 3
 3 1 -7 11720.2 323.81 6
 -3 1 7 14583.2 379.554 1
 -3 -1 -7 13466.6 363.959 2
 -3 -1 -7 12744.9 387.994 3
 3 -1 7 12936.1 352.066 1
 -3 -1 -7 10680 295.85 5
 -3 -1 -6 15386.2 425.619 3
 -3 -1 -6 15594.2 375.969 2
 -3 1 6 14262 355.826 1
 3 1 -6 15361.7 324.177 3
 3 -1 5 5224.3 183.022 7
 -3 -1 -5 5067.58 204.072 2
 3 1 -5 5240.48 181.066 3
 3 -1 5 5440.2 145.222 1
 -3 1 5 5253.28 191.673 8
 3 1 -5 5375.54 219.035 6
 -3 -1 -5 5370.08 253.403 3
 3 -1 5 5296.21 197.301 4
 -3 1 4 12272 292.462 1
 3 -1 4 14600.2 297.264 7
 -3 -1 -4 15098.4 318.175 5
 3 1 -4 13184.9 299.004 6
 -3 1 4 13259.1 285.393 8
 3 -1 4 13660.6 288.554 4
 -3 -1 -4 13079.6 399.209 3
 3 1 -4 13012.8 265.173 3
 -3 -1 -4 13811 321.824 2
 -3 1 3 587.219 75.0995 1
 3 1 -3 859.734 73.3794 4
 3 1 -3 743.144 73.8721 6
 3 1 -3 758.407 64.0394 3
 -3 1 3 756.125 72.5159 8
 3 -1 3 621.893 66.0085 4
 -3 -1 -2 19263.7 364.599 2
 -3 1 2 19671.6 493.005 2
 3 1 -2 20264.8 293.458 3
 3 1 -2 19368.8 306.109 4
 3 -1 2 21622.8 308.476 7
 -3 1 2 21337.7 373.422 1
 3 -1 2 20197.2 323.08 4
 -3 1 1 16132.5 299.622 8
 -3 -1 -1 22949.2 422.365 8
 3 -1 1 19964.9 324.945 6
 -3 -1 -1 15473.9 339.528 2
 3 1 -1 16335 292.959 6
 -3 1 1 16999.6 421.069 2
 3 -1 1 17065.6 262.982 7
 3 -1 1 15624.1 276.657 4
 3 1 -1 18167.8 275.443 4
 -3 -1 -1 22491.4 310.486 5
 3 1 0 121980 761.168 6
 -3 -1 0 111312 683.252 5
 -3 1 0 112127 926.379 2
 -3 -1 0 125850 1043.89 2
 3 -1 0 126396 809.144 4
 -3 1 0 122302 781.71 5
 -3 1 0 129441 843.237 8
 -3 -1 0 119174 906.708 8
 3 1 0 114544 816.99 7
 3 -1 -1 22312.2 352 6
 3 1 1 18827.3 289.127 6
 3 -1 -1 16807.2 303.136 4
 3 1 1 16995.9 243.655 4
 -3 1 -1 18088.2 296.873 5
 -3 -1 1 15981.3 356.846 1
 3 1 1 17835.9 316.125 7
 3 -1 -1 13029.8 223.022 7
 -3 -1 1 19792.2 353.422 8
 -3 1 -1 18346.8 319.891 8
 3 -1 -1 19423.8 312.515 3
 -3 -1 1 19043.8 442.257 2
 -3 1 -1 16558.1 304.088 2
 -3 1 -2 21250.9 323.086 2
 3 1 2 23486.2 301.033 4
 -3 -1 2 22642.1 428.884 1
 3 -1 -2 25841.9 357.987 3
 -3 1 -2 24009.2 375.893 8
 -3 1 -3 746.475 72.5459 5
 3 -1 -3 706.94 77.3011 6
 3 -1 -3 628.969 69.6269 3
 3 -1 -3 563.972 66.6612 4
 3 1 3 544.618 64.4844 7
 -3 -1 3 703.513 86.0844 1
 -3 -1 3 660.73 76.4001 8
 -3 1 -3 599.949 63.0708 2
 -3 -1 3 569.991 114.37 2
 3 1 3 490.011 50.1412 4
 -3 1 -4 13841.8 297.845 5
 -3 -1 4 13476.3 344.738 1
 3 1 4 15282.1 275.527 4
 3 -1 -4 15250.2 320.654 4
 3 -1 -4 13563.4 289.266 6
 3 1 4 14150.1 305.219 7
 -3 1 -4 12402.6 267.112 2
 -3 -1 4 13556.3 310.938 8
 3 -1 -4 13725.3 296.13 3
 -3 -1 4 12935 471.917 2
 3 -1 -5 5553.63 202.69 4
 3 1 5 5954.26 201.151 7
 -3 1 -5 5656.75 273.102 3
 -3 -1 5 5932.39 209.174 8
 -3 1 -5 5514.31 200.017 5
 3 -1 -5 5398.98 201.063 6
 -3 -1 5 6288.11 349.385 2
 3 1 5 6044.49 190.707 4
 3 1 6 13914 325.335 7
 -3 -1 6 15685 401.919 1
 3 -1 -6 16369.8 362.497 6
 -3 1 -6 14398.4 330.015 2
 -3 1 -6 13843.5 422.656 3
 -3 -1 6 14618.5 340.188 8
 -3 1 -6 15409.2 355.389 5
 3 1 6 14578.8 308.558 4
 3 -1 -6 14354.1 323.534 3
 3 -1 -7 14715.7 351.886 3
 3 1 7 16785.4 269.676 1
 -3 1 -7 17820.5 403.534 2
 -3 1 -7 16124.7 460.922 3
 -3 -1 7 15310.4 357.406 8
 3 -1 -7 18852.9 413.736 6
 -3 1 -7 17477.6 377.237 5
 -3 -1 7 20195.9 476.14 1
 3 1 7 16685.2 360.34 4
 3 1 7 16984.6 364.101 7
 3 -1 -8 10224.4 304.931 3
 3 1 8 7639.69 235.975 1
 -3 1 -8 10294.1 308.544 5
 -3 -1 8 10822.1 313.4 8
 -3 1 -8 8444.53 323.169 3
 3 -1 -8 11543.4 335.382 6
 -3 -1 8 9833.51 377.033 1
 3 1 8 10969.5 303.248 7
 3 1 9 30474.1 531.609 7
 3 -1 -9 29741.9 564.293 6
 3 1 9 29454.5 537.223 8
 -3 -1 9 30010.8 542.3 8
 -3 1 -9 29015.9 508.709 6
 -3 1 -9 29056.7 615.411 3
 -3 -1 9 26588.5 588.259 1
 3 -1 -9 30511.5 545.606 3
 -3 1 -9 27932.2 523.378 5
 3 -1 -10 10625.4 347.152 3
 3 1 10 11878.3 378.401 1
 -3 -1 10 10978.4 391.808 1
 3 -1 -10 13113 386.15 6
 -3 1 -10 13336.7 435.632 3
 -3 1 -10 12530 378.142 5
 -3 1 -10 12871.9 356.551 6
 3 1 10 13420.9 367.654 7
 -3 -1 10 12188.2 355.543 8
 3 1 11 23032 494.337 7
 3 -1 -11 22492.2 534.267 6
 3 1 11 23259.4 514.754 8
 3 -1 -11 21760.6 504.339 3
 -3 1 -11 22072.4 566.549 3
 -3 -1 11 22817.9 586.47 1
 -3 1 -11 23152.8 495.785 6
 3 1 11 21222.1 521.01 1
 -3 -1 11 22554.8 504.468 8
 3 -1 -12 4484.37 234.348 3
 3 1 12 4915.13 239.661 7
 3 -1 -12 4840.85 261.763 6
 -3 1 -12 4613 238.286 5
 -3 -1 12 5309.53 295.297 1
 3 1 12 4622.32 252.434 1
 3 1 12 4897.33 243.241 8
 -3 -1 12 4665.71 237.556 8
 -3 -1 13 16146.4 712.005 2
 3 1 13 16819.7 437.735 7
 3 -1 -13 20265.3 519.277 6
 3 1 13 14574.5 426.034 8
 -3 -1 13 14937.6 439.55 8
 -3 1 -13 15252.3 425.104 6
 -3 -1 13 16572.7 528.849 1
 -3 1 -13 18117.7 500.276 5
 -3 1 -13 14951.9 461.908 3
 3 1 13 13560.4 430.475 1
 3 -1 -13 13508.1 408.779 3
 3 1 14 2747.41 187.599 7
 3 -1 -14 1833.97 171.272 6
 -3 1 -14 2675.3 188.637 6
 -3 -1 14 2514.38 213.154 1
 -3 -1 14 1664.6 294.761 2
 3 -1 -14 2407.14 173.169 4
 -3 -1 14 2945.94 203.378 8
 3 1 15 7935.53 345.789 1
 3 1 15 8636.4 341.45 7
 -3 1 -15 7721.77 328.321 5
 -3 -1 15 7335.28 484.616 2
 3 -1 -15 8325.73 325.878 4
 -3 1 -16 1140.97 133.654 5
 3 -1 -16 1183.74 128.72 4
 3 1 16 1030.07 119.986 7
 -3 -1 16 1277.45 212.81 2
 -3 -2 -16 1575.12 147.647 3
 -3 2 16 1404 132.037 8
 3 -2 16 1456.47 151.621 1
 3 2 -16 1383.15 141.846 6
 -3 -2 -16 1451.63 144.365 5
 -3 2 15 336.713 68.4714 8
 -3 -2 -15 430.981 90.4517 3
 3 -2 15 310.204 87.0222 1
 3 2 -15 460.596 86.1862 6
 -3 -2 -14 3297.07 218.761 3
 -3 2 14 3824.72 212.681 8
 3 2 -14 3366.3 216.885 6
 -3 -2 -14 3454.44 226.822 5
 3 -2 14 2790.82 200.573 7
 3 -2 14 3097.65 223.296 1
 3 2 -13 4416.75 242.15 6
 -3 2 13 3859.33 206.385 8
 3 -2 13 3844.09 229.246 7
 -3 -2 -13 3877.72 236.531 5
 3 -2 13 2997.96 211.858 1
 -3 -2 -13 3503.75 225.635 3
 3 -2 12 9270.65 355.988 7
 3 -2 12 9500.42 361.803 1
 -3 2 12 8748.63 302.263 8
 -3 2 11 7609.55 275.671 8
 -3 -2 -11 8481.44 338.065 3
 -3 -2 -11 8623.62 350.011 5
 3 -2 11 7078.89 290.918 7
 3 -2 11 6562.68 296.465 1
 3 2 -11 5796.72 263.604 6
 3 2 -10 18946.2 448.942 6
 -3 -2 -10 18880.7 500.977 3
 -3 -2 -10 17352.1 406.344 6
 -3 -2 -10 17430.6 467.351 5
 3 -2 10 16699 436.97 7
 -3 2 10 16131.1 403.709 8
 3 -2 10 19593.6 508.991 1
 -3 2 9 31655.4 545.184 8
 -3 -2 -9 37424.7 649.836 5
 -3 -2 -9 33947.6 530.992 6
 3 -2 9 35214.8 613.996 7
 3 2 -9 34998.2 554.629 3
 -3 -2 -9 34950.5 684.897 3
 3 2 -9 32425 565.672 6
 3 -2 9 33616.3 640.979 1
 -3 2 9 35350.5 652.771 1
 -3 -2 -8 35945.5 518.525 6
 -3 -2 -8 37090 639.993 5
 3 -2 8 34995.1 637.114 7
 3 -2 8 40936.7 602.588 4
 -3 -2 -8 40481.4 666.287 2
 3 -2 8 39965.6 660.206 1
 3 2 -8 39244.7 564.784 3
 3 2 -8 33719.2 558.729 6
 3 -2 8 37510.9 534.026 8
 -3 2 8 46483.1 640.02 8
 -3 2 8 40347.6 652.273 1
 -3 -2 -8 48719.4 806.955 3
 -3 -2 -7 82851.1 938.087 2
 -3 2 7 76541.3 851.304 1
 3 2 -7 77076 812.86 6
 3 -2 7 80824.2 934.161 1
 -3 -2 -7 84198.8 1005.73 3
 3 -2 7 81951.6 866.926 7
 3 2 -7 83447.2 779.109 3
 -3 -2 -7 80726.8 861.157 5
 3 -2 6 102205 974.765 1
 -3 -2 -6 107919 1110.29 3
 3 2 -6 116549 869.174 3
 -3 2 6 102197 919.482 1
 3 2 -6 108336 946.534 6
 3 -2 6 114248 976.62 4
 -3 2 5 53428.5 616.4 1
 3 -2 5 58093.6 622.269 7
 -3 -2 -5 53461.3 622.486 5
 3 -2 5 62984.6 679.649 4
 3 -2 5 59464.7 514.966 1
 -3 -2 -5 56733.9 797.018 3
 -3 2 5 56482.5 631.529 8
 3 2 -5 49607.8 625.238 6
 -3 -2 -5 62878.8 763.228 2
 3 2 -5 59789.2 569.623 3
 -3 2 4 91097.1 810.244 1
 3 -2 4 121862 842.832 7
 -3 -2 -4 120486 872.492 5
 3 -2 4 111582 649.466 1
 -3 -2 -4 116209 1134.95 3
 3 -2 4 124059 918.117 4
 -3 -2 -4 147586 1129.47 2
 3 2 -4 155042 1070.17 6
 -3 2 4 117829 868.149 8
 3 2 -4 119517 743.601 3
 -3 2 3 85336.8 721.817 1
 -3 -2 -3 90810.4 995.873 3
 3 2 -3 79846.9 715.736 6
 -3 -2 -3 83015.7 812.139 2
 -3 2 3 81664.7 703.928 8
 3 2 -3 85753.1 602.408 3
 3 -2 3 83936.1 734.888 4
 3 -2 3 88211.1 668.735 7
 3 -2 2 168888 864.282 7
 -3 -2 -2 162089 1163.25 2
 3 2 -1 105403 737.197 6
 3 2 -1 104405 675.44 4
 -3 2 1 113839 1070.4 2
 -3 2 1 113218 783.639 8
 -3 -2 -1 108037 675.122 5
 3 -2 0 129563 860.362 6
 3 2 0 141867 727.507 4
 -3 -2 0 144695 692.267 5
 -3 2 0 153993 919.562 8
 -3 2 0 132811 997.981 2
 3 2 1 101296 564.946 4
 3 -2 -1 99740.7 565.382 7
 3 2 2 148654 718.61 4
 -3 -2 2 152200 1173.89 1
 3 2 2 158224 1012.29 7
 3 2 2 154700 839.372 6
 -3 2 -2 153681 962.828 5
 -3 -2 2 146373 1440 2
 3 -2 -2 159665 973.796 4
 3 -2 -2 152553 981.409 3
 3 2 3 94450.8 596.337 4
 -3 -2 3 91682.9 911.544 1
 -3 2 -3 90047.6 607.892 2
 3 -2 -3 99093 821.418 3
 3 -2 -3 93928.3 744.82 6
 3 -2 -3 104569 817.05 4
 -3 -2 3 97136.5 1235.11 2
 -3 2 -3 98361.3 779.473 5
 3 2 3 98184.1 810.059 7
 -3 2 -4 101073 709.267 2
 3 -2 -4 106610 866.539 4
 3 -2 -4 106672 875.758 3
 3 2 4 96434.2 672.694 4
 -3 2 -4 111579 882.417 5
 -3 -2 4 107852 924.579 8
 3 2 4 102016 847.468 7
 -3 -2 4 103366 1009.78 1
 -3 -2 4 109577 1416.93 2
 3 -2 -5 65767.7 704.591 4
 3 2 5 63777.6 673.651 7
 -3 -2 5 59812.5 697.621 8
 -3 2 -5 63661.9 603.628 2
 3 -2 -5 57041 648.118 3
 -3 -2 5 61251.7 790.102 1
 -3 -2 5 57096.9 1078.17 2
 -3 2 -5 59012.1 667.562 5
 3 -2 -6 101033 920.617 4
 3 2 6 100466 812.109 4
 -3 -2 6 101350 955.596 8
 3 2 6 100361 921.051 7
 -3 -2 6 98419 1464.09 2
 -3 2 -6 97332.9 922.344 5
 -3 -2 7 79471.8 1351.79 2
 -3 -2 7 80957.6 861.71 8
 -3 2 -7 79740.6 1023.91 3
 3 2 7 82863.9 609.79 1
 -3 2 -7 81532.3 852.322 5
 3 2 7 84441.8 830.088 7
 3 -2 -7 82504.6 872.561 4
 3 2 8 36871.6 560.803 7
 -3 -2 8 35834.6 965.901 2
 3 -2 -8 38338.6 609.899 4
 -3 -2 8 31204.7 629.016 1
 3 -2 -8 26312.4 512.816 3
 -3 2 -8 36132.4 579.365 5
 3 2 8 40372.2 457.723 1
 -3 -2 8 35152.1 582.836 8
 -3 2 -8 35179.4 662.119 3
 3 -2 -8 40931.6 634.772 6
 -3 2 -9 40665.7 729.904 3
 3 2 9 36224.5 574.55 7
 3 -2 -9 30628.6 611.948 6
 3 2 9 34671.2 593.399 8
 -3 -2 9 36630.6 617.22 8
 3 2 9 32128.2 589.254 1
 -3 2 -9 36119.6 577.224 5
 -3 -2 10 17524.1 555.486 1
 3 2 10 18715.9 444.748 8
 3 2 10 18554.5 482.17 1
 -3 2 -10 19459 449.125 6
 -3 2 -10 18959.8 527.339 3
 3 -2 -10 18589.4 443.817 3
 -3 2 -10 17240 431.786 5
 3 2 10 17117.7 416.276 7
 3 2 11 7861.18 303.521 8
 -3 -2 11 8181.5 500.557 2
 3 2 11 9439.04 310.675 7
 3 -2 -11 7031.47 285.606 4
 -3 -2 11 6722.38 323.368 1
 3 2 11 7047.37 300.92 1
 -3 2 -11 8449.87 323.008 5
 -3 2 -11 7522.99 328.02 3
 -3 2 -11 7496.32 279.734 6
 3 -2 -11 9041.47 335.844 6
 -3 -2 11 7708.98 307.179 8
 3 -2 -11 7383.44 289.894 3
 -3 -2 12 8581.36 518.025 2
 3 2 12 9702.28 326.547 7
 3 -2 -12 10306 362.752 3
 -3 2 -12 10229.8 357.954 5
 -3 2 -12 8642.43 359.817 3
 -3 -2 12 10109.7 361.628 8
 -3 2 -12 10208.8 336.816 6
 3 -2 -12 9934.32 377.958 6
 3 2 13 3908.6 218.113 8
 -3 2 -13 4666.16 235.067 6
 -3 -2 13 3925.69 355.97 2
 -3 -2 13 3615.33 245.641 1
 -3 2 -13 4369.23 256.148 3
 -3 2 -13 3786.04 227.761 5
 3 -2 -13 4220.48 232.678 4
 3 -2 -13 3887.89 220.239 3
 3 2 13 3417.41 219.794 1
 3 2 13 3922.6 213.285 7
 3 -2 -14 3769.73 218.431 3
 -3 2 -14 3623.08 213.127 6
 -3 2 -14 3689.47 230.628 5
 3 -2 -14 3980.49 225.822 4
 -3 -2 14 3698.12 353.327 2
 -3 -2 14 3628.23 250.62 1
 -3 -2 15 467.576 144.147 2
 -3 2 -15 284.103 74.7084 5
 -3 2 -15 360.385 78.7617 6
 3 -2 -15 398.369 79.2149 4
 -3 -2 15 285.146 87.6202 1
 3 -2 -15 288.769 72.0952 3
 -3 2 -16 1692.75 161.983 5
 3 2 16 1975 160.57 7
 -3 -2 16 1292.42 233.779 2
 3 -2 -16 1573.35 149.079 4
 -3 3 16 3568.75 198.661 8
 -3 -3 -16 3670.68 221.851 3
 3 3 -16 3385.81 210.078 6
 3 -3 16 3164.1 219.224 1
 3 -3 15 755.38 115.6 1
 -3 -3 -15 1155.79 129.165 5
 -3 -3 -14 7118.5 313.838 3
 3 -3 14 8397.84 360.801 1
 -3 3 14 7765.53 289.399 8
 3 -3 14 8416.09 368.462 7
 -3 -3 -14 7886.08 349.671 5
 -3 -3 -13 2065.49 178.407 3
 3 -3 13 1759.53 165.73 1
 -3 3 13 1640.22 135.414 8
 3 -3 13 1551.37 165.04 7
 -3 -3 -13 1916.59 174.126 5
 3 3 -13 1483.02 144.193 6
 -3 3 12 19803.3 453.457 8
 3 -3 12 20760.7 523.955 7
 -3 -3 -12 20421.1 537.561 5
 3 -3 12 19546.2 517.173 1
 -3 3 10 30526.5 547.736 8
 -3 -3 -10 29725.1 626.62 3
 -3 -3 -10 33253.6 657.916 5
 3 -3 10 33872.5 634.084 7
 3 -3 10 27660.5 597.084 1
 -3 3 9 2070.25 142.705 8
 -3 -3 -9 1891.29 162.025 3
 3 -3 9 2015.69 167.826 1
 -3 -3 -9 1833.47 149.118 2
 3 -3 9 2168.29 164.915 7
 3 -3 9 1877.31 143.878 4
 3 3 -9 1681.08 132.193 6
 -3 -3 -9 2040 163.789 5
 -3 3 8 31443.9 536.674 8
 -3 -3 -8 33649.5 610.81 5
 3 -3 8 34770.6 588.878 7
 -3 -3 -8 31399.9 468.009 6
 -3 -3 -8 31528.3 600.341 2
 3 -3 8 31692.4 539.917 4
 3 -3 8 32943.8 616.932 1
 -3 -3 -7 2691.49 171.811 5
 3 -3 7 2389.47 165.426 1
 -3 -3 -7 2471.25 185.997 3
 -3 -3 -7 2623.35 174.521 2
 3 3 -7 2194.14 139.721 6
 3 -3 7 2712.86 164.052 4
 -3 3 7 2471.76 146.171 8
 -3 -3 -6 20488.3 433.435 5
 3 -3 6 21730.8 434.827 4
 -3 -3 -6 21772.1 506.69 3
 3 3 -6 20457.7 331.174 3
 -3 3 6 21024.9 404.824 8
 -3 3 6 19643.4 377.953 1
 -3 -3 -6 18915.2 438.475 2
 -3 3 5 16467.2 325.307 1
 -3 -3 -5 15837.3 349.189 5
 3 3 -5 15649.5 261.102 3
 -3 -3 -4 4469.97 211.486 2
 3 3 -4 4737.81 190.773 6
 3 3 -4 7252.64 162.004 3
 3 -3 4 6584.2 217.538 4
 -3 -3 -4 6215.33 254.688 3
 3 -3 4 5384.45 192.228 1
 3 -3 4 6387.53 196.267 7
 -3 3 4 8805.69 218.587 1
 -3 3 4 6071.97 209.589 8
 -3 -3 -4 6134.98 197.854 5
 -3 -3 -3 34338.4 551.555 2
 3 -3 3 33567.5 333.683 1
 -3 3 3 34783.4 456.499 8
 3 -3 3 37766.2 502.432 4
 3 -3 3 36814.4 425.218 7
 -3 3 2 55102.2 550.966 8
 3 -3 2 52213.9 456.929 7
 3 -3 2 74980.4 678.914 4
 -3 -3 -2 73237.3 842.481 2
 -3 -3 -2 57920.2 508.54 5
 3 3 -2 54884.5 579.134 6
 -3 -3 -1 26708.4 487.762 3
 3 3 -1 21916.1 340.37 6
 -3 -3 -1 20818.8 278.845 5
 3 3 -1 20633.4 281.927 4
 -3 -3 -1 23509.8 480.402 2
 -3 3 1 21323.6 324.798 8
 3 -3 1 25895.3 393.15 4
 -3 3 1 19633.6 430.644 2
 -3 -3 0 28700.3 274.57 5
 3 3 0 28633 369.002 6
 -3 3 0 29706.4 419.158 5
 -3 -3 0 27837.8 518.03 1
 -3 -3 0 27428.3 519.816 2
 3 -3 0 24292 389.292 4
 3 3 0 24691 264.378 4
 -3 -3 0 27980.2 484.772 8
 3 -3 0 27626.4 233.905 7
 3 3 0 29466.9 453.162 7
 3 -3 0 27963.1 398.112 3
 -3 3 0 26754.3 357.316 8
 -3 -3 1 18875.9 200.146 5
 -3 3 -1 20683.4 351.298 5
 -3 3 -1 24634 286.747 2
 -3 -3 1 22406.5 501.574 2
 -3 -3 1 12192.7 314.014 8
 -3 3 -1 23717.9 324.37 8
 3 -3 -1 29909.6 431.859 4
 3 3 1 21527.2 228.92 4
 3 -3 -1 10256.9 133.342 7
 3 -3 -1 21470.7 352.568 3
 -3 -3 1 21659.6 463.606 1
 3 3 1 20376 361.961 7
 3 3 1 21972.5 315.169 6
 -3 -3 2 52353.4 359.028 5
 3 3 2 55137.9 376.18 4
 3 3 2 63411.7 668.029 7
 3 -3 -2 53533.1 353.208 7
 3 3 2 55603.2 463.561 6
 -3 3 -2 58148.6 507.281 8
 -3 -3 2 61806.2 721.32 8
 3 -3 -2 69495.6 677.203 4
 -3 -3 2 55324.2 846.749 2
 -3 3 -2 60389.8 594.254 5
 3 -3 -2 60981.5 629.966 3
 -3 3 -2 76327.9 436.992 2
 -3 -3 2 61631 775.693 1
 -3 -3 3 33981 581.517 1
 3 -3 -3 36549 476.218 4
 3 -3 -3 37300.3 516.146 3
 -3 3 -3 29646.3 275.056 2
 3 3 3 32984.9 484.147 7
 -3 -3 3 34377.8 743.907 2
 -3 3 -3 30450.1 453.378 5
 3 -3 -3 32647.3 473.442 6
 3 3 4 7945.09 241.509 7
 3 -3 -4 8179.64 235.883 6
 -3 3 -4 7690.6 232.159 5
 3 -3 -4 8103.25 243.298 4
 -3 -3 4 8890.39 401.402 2
 3 3 4 7798.29 167.478 4
 -3 -3 4 7435.62 252.053 8
 -3 -3 4 8276.52 299.535 1
 3 -3 -4 8174.71 251.019 3
 -3 -3 5 17268.9 394.283 8
 -3 3 -5 21361 398.926 5
 3 3 5 15005.3 273.255 4
 3 -3 -5 20139 384.033 6
 -3 -3 5 15788.2 574.594 2
 3 -3 -5 16481.7 359.959 4
 3 -3 -6 21652.8 434.778 4
 3 -3 -6 18933.1 400.754 3
 -3 3 -6 18899.9 395.588 5
 -3 3 -6 18876.5 513.446 3
 3 3 6 19222.4 386.367 7
 3 -3 -6 21624.6 433.596 6
 -3 -3 6 19867.5 438.448 8
 -3 -3 6 17066.6 642.365 2
 -3 3 -7 2135.07 178.466 3
 -3 -3 7 2673.23 190.677 1
 -3 3 -7 2971.4 171.039 5
 3 -3 -7 2168.24 146.293 3
 3 3 7 2564.67 111.477 1
 3 3 7 2822.66 160.211 7
 -3 -3 7 2489.97 257.436 2
 -3 -3 8 30456.7 582.102 8
 3 -3 -8 30309.8 547.123 3
 3 -3 -8 29755.2 563.575 6
 3 3 8 30996.1 384.281 1
 -3 3 -8 29327.8 621.948 3
 -3 -3 8 30014.2 895.805 2
 3 3 8 30263.2 515.565 7
 3 -3 -9 2319.02 161.356 4
 -3 -3 9 2157.63 162.867 8
 -3 -3 9 2392.43 272.708 2
 3 3 9 2124.41 142.896 7
 3 3 9 2114.6 153.468 8
 -3 3 -9 2108.97 145.175 6
 -3 3 -9 1718.81 157.932 3
 3 3 9 1674.81 147.643 1
 3 -3 -9 2506.32 169.037 6
 -3 3 -9 2058.88 143.001 5
 -3 -3 10 28534.3 656.529 1
 -3 3 -10 25444.1 605.836 3
 3 -3 -10 28129.3 560.804 4
 -3 -3 10 28123.9 596.464 8
 3 -3 -10 27673.2 563.892 3
 3 3 10 26350.3 546.423 8
 -3 3 -10 29923.8 565.283 5
 3 3 10 25322.4 505.082 7
 -3 3 -10 28753.7 549.608 6
 3 3 10 27750.4 595.105 1
 3 -3 -10 25930.1 556.256 6
 -3 -3 10 29694.1 957.98 2
 3 -3 -11 1458.6 135.252 4
 -3 -3 11 1550.93 151.863 8
 3 3 11 1354.26 129.904 8
 3 -3 -11 1717.73 150.868 6
 3 3 11 1079.96 125.101 1
 -3 -3 11 1731.06 243.088 2
 -3 3 -11 1230.73 127.845 5
 -3 3 -11 1367.03 126.711 6
 -3 3 -11 1363 152.679 3
 3 -3 -11 1176.51 127.526 3
 -3 -3 11 1295.68 161.607 1
 3 -3 -12 21060.9 498.382 3
 3 3 12 14114.6 394.069 7
 -3 -3 12 16575.3 514.701 1
 -3 3 -12 19119.6 461.8 6
 3 -3 -12 19162.7 485.638 4
 -3 -3 12 21533.6 837.717 2
 -3 3 -12 19128.1 496.025 5
 3 3 12 18238.3 470.612 8
 -3 3 -12 17656.4 516.062 3
 3 3 13 1980.95 154.934 7
 -3 -3 13 2129.77 278.779 2
 3 -3 -13 1753.71 149.387 3
 -3 3 -13 1697.55 154.507 5
 -3 3 -13 2054.55 157.302 6
 3 -3 -13 2125.9 170.334 4
 -3 -3 13 1902.36 183.566 1
 3 3 13 1768.92 164.582 1
 3 3 13 1542.55 143.852 8
 3 3 14 7340.94 303.899 8
 3 -3 -14 8304.88 338.27 4
 -3 -3 14 7708.14 523.039 2
 -3 3 -14 6649.93 304.358 5
 3 -3 -14 7112.61 296.969 3
 -3 -3 14 7308.69 354.495 1
 3 3 14 6622.58 290.951 7
 -3 3 -14 7047.21 294.84 6
 3 -3 -15 585.672 94.5742 3
 -3 -3 15 642.836 166.178 2
 3 3 15 755.535 104.037 8
 3 -3 -15 788.925 109.986 4
 -3 3 -16 3645.13 231.941 5
 -3 -3 16 3263.85 356.968 2
 -3 -3 16 3388 243.502 1
 3 -3 -16 3467.71 226.867 4
 -3 3 -16 3334.64 216.159 6
 3 3 16 3631.87 223.12 7
 3 4 -15 339.164 76.5919 6
 3 -4 15 309.176 79.51 1
 -3 4 15 274.788 64.5686 8
 -3 -4 -14 3847.6 235.581 5
 -3 -4 -14 4217.29 242.382 3
 3 -4 14 3898.12 245.141 1
 3 4 -14 4598.49 242.057 6
 3 4 -13 567.585 94.8592 6
 -3 -4 -13 548.246 103.882 5
 -3 -4 -13 583.527 102.808 3
 3 -4 13 371.028 95.9698 1
 -3 4 13 518.337 83.388 8
 -3 4 12 8788.13 302.054 8
 3 4 -12 7934.18 304.803 6
 -3 -4 -12 9469.02 365.967 3
 -3 -4 -12 8737.28 363.006 5
 3 -4 12 8722.42 362.807 1
 3 -4 12 9277.63 378.389 7
 3 4 -11 79.8356 47.9826 6
 -3 -4 -11 34.6737 57.1754 3
 -3 4 11 57.654 41.7292 8
 -3 -4 -11 84.117 61.028 5
 3 -4 11 139.345 63.088 1
 3 -4 11 78.7547 44.626 7
 -3 -4 -10 25567.6 597.072 5
 3 -4 10 24682.3 528.399 4
 3 -4 10 24961.6 589.379 7
 -3 -4 -10 24456 574.029 3
 -3 -4 -10 25577.9 585.422 2
 -3 4 10 25480.1 504.088 8
 3 -4 10 23996.8 571.357 1
 3 -4 9 212.455 60.8299 7
 3 4 -9 235.752 65.1323 6
 -3 4 9 232.901 60.1524 8
 -3 -4 -9 320.989 84.9104 3
 -3 -4 -9 452.38 82.0435 2
 3 -4 9 211.095 60.415 4
 -3 -4 -8 73262.2 966.833 3
 3 -4 8 63952.6 931.052 1
 3 4 -8 72518.7 846.859 6
 3 -4 8 60325 841.931 7
 -3 -4 -8 82646.2 1023.61 5
 -3 -4 -8 74258.4 944.275 2
 -3 4 8 66291.5 786.707 8
 3 -4 7 3431.51 185.258 4
 3 -4 7 4798.92 220.683 7
 3 -4 7 4405.82 228.313 1
 -3 4 7 4045.95 187.351 8
 -3 -4 -7 4163.72 218.899 5
 -3 -4 -7 3813.58 225.851 3
 3 4 -7 4569.39 205.016 6
 -3 -4 -7 4099 223.408 2
 -3 -4 -6 107147 1115.8 2
 -3 -4 -6 119877 1234.72 3
 3 -4 6 103865 1074.18 1
 -3 4 6 118246 986.421 8
 -3 -4 -6 113442 1050.29 5
 3 -4 6 112985 1074.72 4
 3 4 -6 115743 1008.99 6
 3 -4 5 8188.8 264.676 4
 -3 -4 -5 7601.93 283.641 2
 -3 4 5 8059.01 247.032 8
 -3 -4 -5 8035.57 265.849 5
 3 -4 5 8821.95 260.164 7
 3 -4 5 8192.87 282.08 1
 -3 -4 -5 8208.37 308.824 3
 3 -4 4 126774 975.795 7
 -3 -4 -4 156325 1122.67 5
 3 4 -4 138203 1031.76 6
 -3 4 4 150971 1053.47 8
 -3 -4 -4 136533 1199.38 3
 -3 -4 -3 6767.6 252.451 3
 3 -4 3 6506.48 233.539 1
 -3 4 3 6848.76 211.898 8
 3 4 -3 5195.88 197.803 6
 -3 -4 -3 6880.95 264.724 2
 3 -4 3 5453.89 199.425 4
 3 -4 3 6371.88 189.245 7
 3 -4 2 151975 820.193 7
 -3 -4 -2 148180 865.469 5
 3 -4 2 158627 1062.94 4
 -3 -4 -2 143237 1227.4 2
 3 4 -2 145222 992.499 6
 -3 4 2 142183 934.051 8
 -3 -4 -2 153678 1155.78 3
 3 -4 1 20706.3 247.374 7
 3 -4 1 18690 370.816 4
 -3 -4 -1 15774.3 362.151 3
 3 -4 1 23316.1 272.164 1
 -3 -4 -1 21153.5 455.061 2
 -3 -4 -1 14216.9 219.962 5
 3 4 -1 18490.8 260.055 4
 -3 4 0 207127 1046.64 8
 -3 -4 0 229973 742.451 5
 3 -4 0 221333 742.635 1
 -3 4 0 213860 1219.73 2
 -3 -4 0 224437 1566.97 1
 -3 4 0 208262 1207.68 5
 -3 -4 0 217864 1527.34 2
 3 4 0 221381 1103.59 6
 3 -4 0 220481 1341.77 4
 3 4 0 210149 1357.25 7
 3 -4 0 224284 1236.14 3
 -3 4 -1 16410 326.586 5
 3 -4 -1 9660.49 133.905 1
 3 -4 -1 12555.8 289.899 4
 3 4 1 16986.4 172.687 4
 -3 -4 1 19931.8 470.117 1
 -3 -4 1 16678.2 322.694 3
 3 4 1 15837.4 251.282 6
 -3 -4 1 16080.9 438.47 2
 -3 4 -1 15845 167.586 2
 3 4 1 17327.6 359.321 7
 -3 4 -1 19765 302.933 8
 -3 -4 1 17913.1 403.139 8
 3 -4 -1 16003.5 319.72 3
 -3 -4 2 138553 1275.04 1
 3 4 2 152311 1125.24 7
 3 -4 -2 142641 1045.92 3
 -3 -4 2 144535 1405.2 2
 3 -4 -2 138147 992.48 6
 3 4 2 131132 758.709 6
 -3 4 -2 135052 1001.16 5
 -3 4 -2 154981 866.44 8
 -3 -4 2 131967 1141.15 8
 3 4 2 138862 505.295 4
 -3 -4 3 5565.79 253.02 1
 3 -4 -3 5775.06 213.881 3
 3 -4 -3 4633.03 185.844 6
 -3 4 -3 4567.25 177.655 5
 -3 -4 3 5172.62 285.667 2
 -3 -4 3 4611.84 91.265 5
 3 -4 -3 5026.43 201.112 4
 3 4 3 5294.17 202.3 7
 3 4 4 151505 1160.43 7
 -3 -4 4 157984 1228.44 8
 -3 -4 5 6259.49 257.002 8
 -3 -4 5 6857.56 287.41 1
 3 -4 -5 6870.01 230.51 6
 3 -4 -5 6637.65 238.87 3
 -3 4 -6 105511 1239.11 3
 -3 -4 6 103625 1174.79 1
 -3 4 -6 114870 1017.26 5
 3 -4 -6 118675 998.835 6
 -3 -4 6 103783 1063.19 8
 3 -4 -6 111214 1016.66 3
 3 -4 -6 117511 1051.8 4
 -3 -4 6 108720 1592.16 2
 3 4 6 122123 1008.96 7
 3 -4 -7 3430.73 185.796 4
 -3 -4 7 3311.04 309.356 2
 -3 -4 7 3707.76 226.026 1
 -3 4 -7 3340.58 183.1 5
 3 -4 -7 3424.01 179.661 6
 3 -4 -7 3094.8 175.322 3
 -3 -4 8 73850.1 975.997 8
 3 -4 -8 76998.4 907.974 6
 3 -4 -8 65052.4 823.95 3
 -3 -4 8 67679.1 1376.74 2
 -3 4 -8 61071.1 781.415 5
 3 -4 -8 70304.7 881.005 4
 3 4 8 65954.4 582.364 1
 -3 -4 8 77776.7 1040.26 1
 -3 4 -8 75978.4 1052.7 3
 3 -4 -9 133.385 52.2589 4
 -3 -4 9 140.773 67.637 1
 3 4 9 61.9002 37.6854 1
 3 -4 -9 178.391 63.1818 6
 -3 4 -9 128.279 49.4835 6
 -3 4 -9 125.613 48.5197 5
 -3 4 -9 131.008 66.0158 3
 3 -4 -9 110.189 58.1264 3
 3 4 9 101.591 52.3214 8
 -3 -4 9 149.857 57.5085 8
 -3 -4 9 160.909 99.6342 2
 3 4 9 137.318 45.4074 7
 3 -4 -10 29872.9 604.797 4
 -3 -4 10 25076.6 605.098 8
 3 4 10 25242.1 498.991 7
 -3 4 -10 25301.3 520.024 5
 -3 4 -10 34440.5 601.377 6
 -3 -4 10 31057.4 1029.73 2
 3 4 10 32845.8 662.496 1
 3 4 10 27153.3 553.506 8
 -3 -4 10 33364.2 722.647 1
 3 -4 -10 27681.6 555.39 3
 -3 4 -11 151.688 54.835 6
 3 -4 -11 190.42 62.368 4
 3 4 11 144.494 53.5438 7
 -3 -4 11 171.599 113.111 2
 3 4 11 133.747 57.3646 1
 3 -4 -11 140.394 62.3043 3
 3 -4 -12 11296.9 390.66 4
 -3 4 -12 9582.18 356.856 5
 -3 -4 12 9973.5 589.897 2
 3 4 12 8081.81 303.178 7
 -3 4 -12 10187.7 337.92 6
 -3 -4 12 9770.82 398.789 1
 3 4 12 10589.5 360.346 8
 3 -4 -12 8315.52 317.117 3
 -3 -4 13 588.602 163.353 2
 3 -4 -13 616.692 100.072 4
 -3 4 -13 633.09 97.903 5
 3 -4 -14 4920.35 270.1 4
 3 4 14 4337.35 232.073 8
 -3 -4 14 3964.48 262.643 1
 -3 4 -14 4247.29 227.022 6
 3 4 14 3812.7 214.972 7
 -3 -4 14 4727.78 417.988 2
 -3 4 -14 4902.24 268.424 5
 3 -4 -14 4179.17 228.056 3
 -3 -4 15 337.829 88.8573 1
 3 4 15 282.475 67.7924 7
 -3 4 -15 336.43 82.0979 5
 -3 4 -15 294.493 73.7063 6
 3 4 15 311.436 70.2573 8
 3 -4 -15 258.177 70.0021 3
 3 5 -15 1106.33 132.572 6
 -3 -5 -15 1040.27 123.71 3
 -3 5 15 939.286 102.552 8
 3 -5 15 778.856 121.107 1
 3 5 -14 2667.53 185.005 6
 -3 -5 -14 3369.29 215.104 3
 -3 5 14 3060.86 180.619 8
 3 -5 14 3465.47 228.65 1
 3 -5 13 2943.63 214.63 1
 3 5 -13 2389.8 174.525 6
 -3 -5 -13 3686.98 231.638 3
 -3 -5 -13 3925.67 239.5 5
 -3 5 13 3137.26 182.024 8
 3 -5 12 5962.09 306.154 1
 3 5 -12 5337.22 248.236 6
 -3 -5 -12 5987.55 291.414 3
 -3 -5 -12 5795.8 300.485 5
 3 -5 11 7452.85 333.277 1
 3 -5 11 6671.49 356.492 7
 -3 -5 -11 7358.3 345.567 5
 -3 5 11 7471.81 278.515 8
 -3 -5 -10 5772.89 296.059 5
 3 -5 10 5580.97 290.239 7
 3 -5 9 15715.7 460.839 1
 3 -5 9 12889 432.161 7
 -3 5 9 15427.2 389.197 8
 3 -5 9 17437.8 430.269 4
 -3 -5 -9 16410 479.38 5
 -3 -5 -9 16391.6 464.029 3
 -3 -5 -9 13969.9 415.316 2
 -3 -5 -8 6501.74 287.028 3
 -3 5 8 5759.64 231.25 8
 3 5 -8 4323.89 220.555 6
 -3 -5 -8 5031.48 256.401 2
 3 -5 8 5574.81 266.017 1
 3 -5 7 34659.6 640.873 7
 -3 -5 -7 35357.8 650.364 5
 -3 5 6 1591.54 118.624 8
 3 -5 6 1419.51 122.208 4
 -3 -5 -6 1877.86 152.68 3
 -3 -5 -6 1103.56 120.899 2
 3 5 -6 1261.76 113.844 6
 -3 -5 -6 1407.31 129.961 5
 3 -5 6 1962.36 147.748 7
 -3 -5 -5 47440 688.353 5
 3 -5 5 47838.4 675.884 7
 -3 -5 -5 46934.6 752.614 2
 3 -5 4 2936.8 162.044 4
 3 -5 4 3026.46 173.886 1
 -3 -5 -4 3366.46 192.902 2
 3 -5 4 3234.05 161.443 7
 -3 -5 -4 3056.36 160.264 5
 -3 5 3 37402.4 508.252 8
 3 -5 3 32322.8 531.261 1
 -3 -5 -3 39718.5 632.703 3
 3 -5 3 28358.9 439.589 7
 -3 -5 -3 40469.2 665.851 2
 3 5 -3 26391 451.922 6
 3 5 -2 18803 368.522 6
 -3 -5 -2 20334.9 332.491 5
 -3 5 2 18272.4 334.824 8
 -3 -5 -2 15857.4 374.885 3
 3 -5 2 13414.2 320.58 1
 -3 -5 -2 15905.4 416.355 2
 3 -5 2 19386 314.91 7
 3 -5 2 20334.4 415.018 4
 -3 -5 -1 19421.5 380.878 3
 -3 -5 -1 26008.4 534.392 2
 -3 5 1 21954.5 347.596 8
 3 -5 1 24737.4 393.993 1
 3 -5 1 29459.6 476.873 4
 3 5 -1 24552.1 472.962 7
 3 5 -1 22824.9 293.664 4
 3 5 -1 24365.5 386.382 6
 3 5 0 41030.4 454.85 6
 -3 5 0 47643.7 588.31 5
 3 5 0 48803.6 653.596 7
 -3 -5 0 42506.7 510.027 3
 -3 -5 0 46984.3 742.025 1
 -3 5 0 43694.7 464.968 8
 3 -5 0 44364.1 570.675 4
 -3 -5 0 49117.1 766.946 2
 -3 5 0 44936.2 523.809 2
 3 5 0 45266.4 325.323 4
 -3 5 -1 29700.1 460.829 5
 -3 -5 1 29011.6 604.392 1
 3 -5 -1 19760.1 385.825 4
 -3 5 -1 26532.8 349.917 8
 3 5 1 24431.4 320.61 6
 3 5 1 25700.4 457.342 7
 -3 -5 1 22075.3 315.717 3
 3 -5 -1 18206.6 238.716 1
 3 -5 -1 24975.6 421.624 3
 -3 -5 1 28716.4 595.379 2
 3 -5 -2 20351.9 398.159 3
 3 5 2 21391.5 267.861 6
 -3 -5 2 22090.5 553.672 2
 -3 -5 2 20374.3 496.5 1
 -3 5 -2 20542.6 383.171 5
 3 -5 -2 19464 378.295 4
 3 5 2 20489.4 414.251 7
 -3 -5 2 18959.6 234.894 3
 3 -5 -3 44137.7 594.264 4
 -3 -5 3 36007.7 746.404 2
 -3 5 -3 38178.4 523.427 5
 3 5 3 39075.9 560.348 7
 3 -5 -3 27388.9 447.934 6
 -3 -5 3 33267.4 653.929 8
 -3 -5 4 3303.41 187.628 8
 -3 -5 4 3774.75 225.053 1
 3 -5 -4 4087.98 198.116 4
 3 5 4 4682.54 202.432 7
 3 -5 -4 4736.12 208.467 3
 3 -5 -5 45860.6 659.389 3
 -3 5 -5 44627.3 623.576 5
 -3 -5 5 39530.6 899.083 2
 -3 -5 5 42395.9 699.821 8
 3 -5 -5 45953.2 644.853 4
 3 5 5 43506.8 619.417 7
 -3 -5 5 40769.5 750.928 1
 -3 -5 6 1235.97 142.422 1
 3 5 6 1376.8 112.587 7
 3 -5 -6 1703.36 134.071 6
 -3 5 -6 1398.84 115.827 5
 3 -5 -6 1208.18 114.964 3
 -3 -5 6 1426.95 131.949 8
 3 -5 -6 1141.93 108.981 4
 -3 -5 6 1127.81 180.448 2
 3 -5 -7 33725.6 606.064 4
 3 5 7 34525 565.896 7
 3 -5 -7 29799.6 549.894 6
 -3 -5 7 28801.3 854.541 2
 -3 5 -7 28734.7 657.301 3
 -3 -5 7 27464.6 592.875 8
 -3 5 -7 31423 567.707 5
 3 5 8 4021.08 143.193 1
 3 -5 -8 4139.81 213.436 3
 -3 -5 8 3687.68 326.131 2
 -3 -5 8 4227.58 257.459 1
 3 -5 -8 4248.35 220.693 4
 3 5 8 4497.16 207.065 7
 -3 -5 9 14964.8 485.786 1
 3 5 9 14595.5 375.102 7
 -3 5 -9 15482.6 399.607 6
 -3 -5 9 14078.7 651.673 2
 3 5 9 14707.3 406.417 8
 3 -5 -9 16042.9 441.323 4
 3 -5 -9 14406.7 404.645 3
 3 5 10 4068.66 205.332 7
 -3 -5 10 4157.31 373.61 2
 3 -5 -10 5273.6 260.682 4
 3 5 10 4488.08 250.305 1
 -3 5 -10 3318.03 195.052 5
 -3 -5 11 7255.49 346.109 1
 3 5 11 6483.36 287.496 8
 3 5 11 6788.85 273.019 7
 -3 5 -11 7492.08 287.469 6
 -3 5 -11 6333.49 272.876 5
 3 -5 -11 7581.63 319.473 4
 3 -5 -11 6810.3 282.26 3
 -3 -5 12 4607.24 411.682 2
 3 5 12 5297.25 260.865 8
 3 5 12 4703.61 229.569 7
 -3 5 -12 3737.15 227.721 5
 3 -5 -12 5517.92 279.145 4
 -3 -5 12 4732.22 281.775 1
 -3 5 -12 5574.17 253.028 6
 -3 -5 13 2739.78 218.642 1
 -3 -5 13 3067.3 340.589 2
 3 -5 -13 3117.7 219.448 4
 3 5 13 2813.42 188.3 8
 3 -5 -13 3026.4 193.544 3
 3 5 13 3331.24 199.505 7
 -3 5 -13 3393.12 198.204 6
 -3 5 -14 2560.25 178.17 6
 3 5 14 2424.4 176.19 7
 3 5 14 2787.55 185.951 8
 -3 -5 14 2705.09 217.207 1
 3 -5 -14 2791.47 185.132 3
 -3 -5 15 746.51 121.632 1
 3 -5 -15 753.627 104.687 3
 3 5 15 759.914 101.424 8
 3 5 15 637.356 96.0301 7
 3 6 -15 766.463 110.933 6
 -3 6 15 525.597 81.0632 8
 -3 -6 -15 682.49 105.52 3
 3 -6 15 415.711 91.9236 1
 3 6 -14 198.788 64.6916 6
 -3 6 14 320.466 66.5451 8
 -3 -6 -14 280.694 74.6205 3
 3 -6 14 258.104 82.1874 1
 3 -6 13 2257.06 187.548 1
 -3 -6 -13 2481.59 191.261 3
 -3 6 13 2258.74 155.7 8
 3 -6 12 2038.22 184.279 1
 -3 -6 -12 2065.3 176.886 3
 -3 6 12 1742.3 139.438 8
 3 6 -12 1998.05 157.053 6
 -3 -6 -11 5349.16 277.41 3
 -3 6 11 5255.34 237.93 8
 3 -6 11 5307.53 288.765 1
 -3 -6 -11 5958.11 298.698 5
 3 -6 10 4763.2 238.629 4
 -3 -6 -10 5195.38 266.425 2
 -3 6 10 4767.77 225.599 8
 3 -6 10 5128.82 289.391 1
 -3 -6 -10 5748.29 293.473 3
 3 6 -10 5115.32 239.43 6
 3 6 -9 11957.8 361.759 6
 -3 -6 -9 12450.1 416.3 3
 -3 -6 -9 11158.3 374.314 2
 3 -6 9 12222.2 426.942 1
 -3 6 9 11455.3 338.295 8
 3 -6 9 10591 349.874 4
 -3 -6 -9 11455.3 415.95 5
 -3 -6 -8 12135.6 423.72 5
 -3 -6 -8 11372.6 384.199 2
 -3 -6 -7 20889 529.329 5
 3 -6 7 19096.3 540.866 7
 -3 -6 -7 19625.8 514.425 2
 -3 6 7 20662.6 439.665 8
 3 -6 7 21828.2 534.664 1
 3 -6 7 20541.8 484.328 4
 3 -6 6 22417.1 524.951 1
 -3 -6 -6 25318.6 552.956 3
 -3 6 6 23701.2 459.841 8
 -3 -6 -6 23613.9 529.523 5
 3 -6 6 24297.8 575.452 7
 -3 -6 -5 77798.2 981.614 2
 3 -6 5 83709.3 915.545 4
 -3 6 5 82875.2 851.962 8
 -3 -6 -5 95782.2 1054.43 3
 3 -6 5 98494.8 1049.13 1
 -3 6 4 44460 597.615 8
 -3 -6 -4 43224.1 639.696 5
 -3 -6 -4 44637.9 731.549 2
 -3 6 3 187308 1217.44 8
 3 6 -3 191875 1312.85 6
 -3 -6 -3 194473 1405.21 3
 3 -6 3 190265 1312.37 4
 3 -6 2 32114.4 511.155 1
 -3 6 2 37285.2 501.421 8
 3 6 -2 40768.6 588.934 6
 -3 -6 -2 37996.2 664.506 2
 3 -6 2 34348.9 548.777 4
 -3 -6 -2 37989.2 574.709 3
 3 -6 1 181900 1155.45 1
 -3 6 1 180710 1081.57 8
 3 -6 0 27559.7 460.391 3
 3 -6 0 27130.2 372.219 1
 3 -6 0 28221.7 503.526 4
 -3 6 -1 163511 924.098 8
 3 6 1 171582 907.435 6
 -3 -6 1 178834 1555.03 2
 -3 6 -1 168551 1199.43 5
 3 -6 -1 175277 1211.81 3
 3 -6 -1 168967 1206.77 4
 -3 -6 2 36665.9 712.72 1
 3 -6 -2 36817.9 562.746 3
 -3 6 -2 37352.7 540.808 5
 3 -6 -3 185858 1352.93 3
 -3 -6 3 181957 1596.23 1
 3 -6 -4 43986.1 661.492 3
 3 6 4 46153 652.273 7
 -3 -6 4 41081.2 707.313 8
 -3 -6 4 40630.2 853.454 2
 -3 6 -4 45628.6 624.188 5
 -3 -6 4 47536.6 830.04 1
 -3 -6 5 81308 1104.85 1
 -3 -6 5 101537 1130.94 8
 3 6 5 91430.1 919.553 7
 -3 -6 5 79452.7 1247.81 2
 3 -6 -5 87132 880.803 6
 -3 6 -5 73110.9 827.067 5
 3 -6 -5 80821.6 917.295 3
 -3 6 -6 22620.2 469.686 5
 3 6 6 21636.2 449.016 7
 -3 -6 6 18709.3 495.932 8
 -3 -6 6 19561.8 680.641 2
 3 -6 -7 21857 483.723 3
 -3 -6 7 17767.6 670.883 2
 3 -6 -7 21063.3 490.666 4
 -3 -6 7 22343.1 586.314 1
 -3 6 -7 19237.6 457.768 5
 -3 6 -8 10280.5 331.4 5
 -3 6 -8 11219.8 342.216 6
 3 -6 -8 11603.5 362.519 3
 3 6 8 11970.8 347.92 7
 -3 -6 8 10744.5 421.437 1
 -3 6 -9 12702.7 378.257 6
 -3 -6 9 12651.4 645.681 2
 3 6 9 11909.2 386.291 8
 3 6 9 12138.7 352.345 7
 3 -6 -9 11620.4 387.604 4
 3 -6 -9 12378.3 374.373 3
 -3 -6 10 4517.85 279.374 1
 -3 6 -10 5124.52 242.716 6
 -3 -6 10 5517.15 439.649 2
 -3 6 -10 4646.49 229.906 5
 3 6 10 4438.88 232.857 8
 3 6 10 4456.32 218.119 7
 3 -6 -10 5104.9 266.715 4
 3 -6 -10 4479.01 231.157 3
 3 -6 -11 5511.31 261.209 3
 -3 -6 11 6644.69 339.419 1
 -3 6 -11 5053.66 249.576 5
 3 6 11 5949.4 258.037 7
 -3 6 -11 6714.93 279.806 6
 -3 -6 11 6114.68 463.566 2
 3 6 11 6303.3 279.29 8
 -3 -6 12 1956.09 193.005 1
 3 -6 -12 2023.06 160.016 3
 3 6 12 2046.21 162.73 7
 -3 6 -12 2137.7 161.203 6
 -3 -6 13 2790.04 221.675 1
 -3 6 -13 2221.3 179.229 5
 3 6 13 2604.12 178.384 7
 3 -6 -13 2784.72 185.347 3
 3 6 13 2618.88 181.634 8
 -3 6 -14 475.681 85.3739 6
 3 -6 -14 380.321 79.6302 3
 3 6 14 275.964 67.5329 8
 -3 -6 15 649.886 116.004 1
 3 -6 -15 716.066 102.589 3
 3 6 15 807.348 104.213 8
 -3 7 14 21.9287 36.5607 8
 3 -7 14 53.9484 51.7776 1
 3 7 -14 9.5906 45.1941 6
 -3 -7 -14 -2.6431 47.0887 3
 -3 7 13 1601.56 132.409 8
 3 -7 13 1362.74 155.271 1
 3 7 -13 1139.49 127.158 6
 -3 7 12 458.318 76.34 8
 3 -7 12 542.769 105.281 1
 -3 -7 -12 584.328 101.635 3
 3 7 -12 531.063 84.5534 6
 -3 7 11 5365.3 241.401 8
 3 7 -11 6133.45 257.951 6
 3 -7 11 5347.38 296.962 1
 -3 -7 -11 6098.73 301.022 3
 3 -7 10 1861.43 175.286 1
 3 -7 10 1859.3 153.338 4
 -3 7 10 1574.97 134.588 8
 3 7 -10 1623.33 138.741 6
 -3 -7 -10 1453.18 146.722 2
 -3 -7 -10 1664.6 165.047 3
 3 7 -9 13110.3 382.514 6
 -3 -7 -9 13656.5 421.523 2
 -3 7 9 13158.6 367.957 8
 3 -7 9 14010.2 405.806 4
 3 -7 8 3869.63 206.425 4
 -3 7 8 4229.57 211.972 8
 3 7 -8 3794.63 207.669 6
 -3 -7 -8 3646.61 224.05 2
 3 -7 7 19717.9 464.952 4
 -3 -7 -7 21975.6 550.237 2
 -3 7 7 20402.2 450.528 8
 -3 -7 -7 23791.2 560.189 3
 3 -7 7 22609.4 567.881 1
 3 -7 6 7563.16 322.693 1
 -3 -7 -6 7099.1 299.288 2
 3 -7 6 7603.03 290.218 4
 -3 7 5 11051.3 321.789 8
 3 -7 5 9874.75 358.475 1
 -3 -7 -5 11236.6 372.116 3
 3 7 -5 9900.85 315.291 6
 3 7 -4 9537.83 298.307 6
 -3 -7 -4 10074.5 339.379 3
 -3 -7 -4 10141.9 357.686 2
 -3 7 4 9436.56 286.117 8
 -3 -7 -3 16157.6 453.858 2
 3 -7 3 18335.7 422.153 4
 -3 7 3 23631.1 440.01 8
 3 7 -3 19456.9 430.264 6
 3 -7 3 23050.3 516.201 1
 3 -7 2 1528.16 130.434 1
 -3 7 2 1855.93 118.243 8
 3 -7 2 1787.82 130.701 4
 3 7 -2 2015.14 135.499 6
 -3 -7 -1 28506.8 461.944 3
 3 -7 1 28418.7 521.667 4
 -3 -7 -1 24799 565.573 2
 -3 7 1 23784.5 400.988 8
 3 7 -1 24445.5 511.241 7
 -3 7 1 26929.1 502.529 5
 3 7 -1 27015.7 435.402 6
 -3 7 0 7329.96 256.358 5
 -3 -7 0 7199.04 326.705 1
 -3 -7 0 8162.14 345.107 2
 3 7 0 7165.17 277.375 7
 -3 7 -1 23612.2 455.301 5
 -3 -7 1 24862.6 600.784 1
 3 -7 -1 23900.5 455.701 3
 -3 -7 1 22833.8 566.734 2
 3 7 1 25214.5 511.555 7
 3 7 2 1711.97 137.891 7
 3 -7 -2 1665.76 127.333 3
 -3 7 -2 1615.92 120.86 5
 -3 -7 2 1579.23 159.366 2
 -3 -7 3 27700.8 667.856 2
 3 7 3 21795.5 457.976 7
 3 -7 -3 23539.5 488.181 3
 3 -7 -3 19531.5 435.262 4
 -3 7 -3 26415.8 482.017 5
 -3 -7 4 9919.43 426.123 2
 3 7 4 7967.56 291.79 7
 3 -7 -4 10220.3 337.006 3
 -3 -7 4 9132.57 377.44 1
 3 -7 -4 7551.77 286.423 4
 -3 7 -4 8670.9 285.473 5
 -3 -7 5 12011.3 501.009 2
 3 7 5 14260.6 374.841 7
 3 -7 -5 14230 406.965 4
 -3 7 -5 10637.1 329.508 5
 -3 -7 6 5602.66 361.333 2
 3 7 6 7794.75 277.453 7
 3 -7 -6 6959.56 291.826 3
 -3 -7 6 6640.27 338.888 1
 3 -7 -6 5199.47 249.745 4
 -3 7 -6 4460.59 217.402 5
 3 -7 -7 21101.9 491.982 3
 3 -7 -7 21235.7 526.921 4
 -3 -7 7 19454.7 572.989 1
 3 7 7 20268.3 456.254 7
 3 7 8 3887.05 205.921 7
 -3 7 -8 3790.58 208.059 5
 -3 7 -8 3931.22 216.972 6
 -3 -7 8 4404.03 279.541 1
 3 -7 -8 4323.36 227.741 3
 -3 -7 8 3567.94 319.677 2
 3 7 8 4448.5 233.506 8
 3 7 9 12048.3 358.528 7
 -3 7 -9 11203.6 357.455 5
 -3 7 -9 15745.6 422.746 6
 3 7 9 12536 396.514 8
 3 -7 -9 15197.7 468.13 4
 -3 -7 9 10798.7 571.899 2
 3 -7 -9 12712.2 388.741 3
 -3 -7 9 13059 477.758 1
 -3 7 -10 1790.4 149.346 6
 3 7 10 2008.93 151.626 7
 -3 -7 10 1796.42 184.634 1
 3 -7 -10 1811.03 152.589 3
 3 7 10 1788.07 153.759 8
 -3 7 -11 5024.49 248.263 6
 3 7 11 5232.06 247.467 7
 3 7 11 5260.56 255.555 8
 3 -7 -11 4796.56 244.306 3
 -3 -7 11 4893.35 296.958 1
 3 -7 -12 520.536 90.7678 3
 -3 -7 12 569.15 116.138 1
 3 7 12 583.447 93.5807 8
 -3 7 -12 490.012 84.5913 6
 3 -7 -13 1571.3 145.294 3
 3 7 13 1178.9 126.705 8
 -3 -7 13 1613.53 172.084 1
 -3 7 -13 1402.98 134.65 6
 3 7 14 -2.31202 35.583 8
 -3 -7 14 -3.35598 61.9799 1
 3 -7 -14 2.45275 47.1483 3
 -3 7 -14 -6.78875 43.4992 6
 -3 8 13 765.248 96.9217 8
 -3 -8 -13 1138.74 134.964 3
 3 -8 13 916.359 129.177 1
 3 8 -13 826.678 109.517 6
 3 -8 12 225.604 77.6328 1
 3 8 -12 377.125 80.1149 6
 -3 8 12 253.022 60.3822 8
 -3 -8 -12 271.421 75.3689 3
 3 8 -11 3141.98 194.89 6
 3 -8 11 3108.94 234.958 1
 -3 8 11 3572.2 198.184 8
 -3 -8 -10 805.491 113.469 2
 3 8 -10 510.394 85.6211 6
 3 -8 10 763.003 124.568 1
 -3 -8 -10 841.241 117.536 3
 -3 8 10 637.392 88.3558 8
 -3 8 9 6565.61 267.924 8
 3 -8 9 7189.79 340.561 1
 3 8 -9 6918.65 282.471 6
 -3 -8 -9 6649.13 303.288 2
 3 -8 9 6898.07 292.024 4
 3 -8 8 3763.43 246.272 1
 -3 -8 -8 4093.16 241.077 2
 3 -8 7 28919.9 570.688 4
 -3 -8 -7 27619.7 628.461 2
 -3 8 7 28252.7 547.451 8
 -3 -8 -7 27948.3 641.345 3
 3 8 -6 21259.2 477.909 6
 -3 -8 -6 15082.4 450.271 2
 3 -8 6 11371.7 363.23 4
 3 -8 6 16524.5 502.817 1
 -3 -8 -6 19003.1 502.477 3
 -3 8 6 15839 403.724 8
 -3 -8 -5 68783.7 960.071 2
 3 -8 5 69704.3 916.151 4
 3 -8 4 13978.6 425.66 1
 -3 8 4 15655.1 386.241 8
 3 8 -4 15631.5 399.457 6
 -3 -8 -4 21664.8 544.31 2
 -3 -8 -4 20340.4 491.138 3
 -3 8 3 111281 1007.23 8
 -3 -8 -3 106484 1105.14 3
 3 -8 2 23156.3 490.162 4
 3 8 -2 21716 442.056 6
 3 8 -2 22112.8 530.856 7
 -3 -8 -2 21462.3 461.503 3
 -3 -8 -1 139150 1393.37 2
 3 8 -1 139979 1343.48 7
 -3 8 1 142079 1244.84 5
 -3 -8 0 34968.3 757.745 1
 3 -8 0 33487.2 552.265 3
 3 -8 0 20556 469.427 4
 -3 -8 0 41186.8 773.928 2
 3 8 0 37303.4 675.878 7
 -3 8 0 26288.4 525.782 5
 -3 -8 1 134220 1518.06 1
 3 -8 -1 139262 1199.7 3
 3 8 1 121931 1283.74 7
 -3 -8 1 151751 1528.29 2
 3 -8 -1 154288 1267.83 4
 -3 8 -1 147972 1296.82 5
 3 8 2 23625.4 521.571 7
 -3 -8 2 20921.6 571.446 2
 -3 8 -2 20141.1 435.378 5
 3 -8 -2 20123.5 442.807 3
 -3 -8 2 23309.9 641.441 1
 3 8 3 129264 1206.93 7
 -3 8 -3 119754 1080.91 5
 -3 -8 3 90426 1256.98 2
 3 -8 -3 99756.7 1044.68 3
 3 -8 -3 89107.5 983.36 4
 -3 -8 3 101554 1351.19 1
 -3 8 -4 18511 434.314 5
 3 -8 -4 18580.5 451.432 4
 -3 8 -5 49839.6 743.232 5
 -3 -8 5 49676.1 1046.23 2
 -3 -8 5 52138.9 964.446 1
 3 8 6 22518.7 491.76 7
 -3 8 -6 16148.8 423.284 5
 -3 -8 6 19674.1 591.995 1
 3 -8 -6 20114 493.224 3
 -3 -8 6 17974.7 640.966 2
 3 -8 -6 20702.8 500.712 4
 -3 -8 7 25498.2 692.268 1
 -3 8 -7 26990.7 552.476 6
 -3 -8 7 26415.3 823.958 2
 3 -8 -7 25097 571.212 3
 -3 -8 8 4672.25 300.528 1
 3 -8 -8 4817.41 254.346 3
 3 8 8 4474.4 227.488 7
 3 8 8 5225.58 257.446 8
 -3 -8 9 7835.68 379.801 1
 3 -8 -9 8059.5 325.439 3
 -3 8 -9 8117.86 310.593 6
 3 8 9 7161.19 304.612 8
 3 8 10 924.598 114.606 8
 -3 -8 10 954.61 143.406 1
 3 -8 -10 976.276 121.823 3
 -3 8 -10 934.421 116.45 6
 3 8 10 695.797 94.7611 7
 3 8 11 4657.76 246.488 8
 -3 8 -11 4368.35 229.785 6
 3 -8 -11 4259.43 237.396 3
 -3 -8 11 4147.18 279.138 1
 3 8 12 396.406 80.973 8
 -3 8 -12 372.867 74.6288 6
 3 -8 -12 351.63 84.2282 3
 -3 -8 12 434.387 103.147 1
 3 8 13 1259.38 127.54 8
 -3 -8 13 1321.73 162.908 1
 3 -8 -13 1139.97 126.924 3
 -3 8 -13 880.592 109.687 6
 3 9 -13 314.171 75.7865 6
 -3 -9 -13 366.576 86.5208 3
 3 -9 13 411.196 94.4469 1
 3 9 -12 790.533 109.225 6
 -3 -9 -12 933.75 123.353 3
 3 -9 12 833.164 128.64 1
 -3 9 12 756.871 96.9132 8
 3 9 -11 1197.63 126.288 6
 -3 -9 -11 1144.51 136.225 3
 3 -9 11 897.862 135.17 1
 -3 9 11 1025.95 111.234 8
 3 9 -10 1992.59 160.032 6
 -3 -9 -10 2402.56 195.587 3
 -3 9 10 2128.75 157.996 8
 3 -9 9 2629.9 225.036 1
 -3 9 9 3339.92 196.685 8
 3 -9 9 4535.27 242.175 4
 3 9 -9 3305.62 198.051 6
 -3 -9 -9 4344.43 258.496 3
 -3 -9 -9 1755.64 167.309 2
 3 -9 8 2440.16 211.275 1
 -3 9 8 2974.84 186.843 8
 3 9 -8 3012.8 191.18 6
 -3 -9 -8 2872.19 212.735 2
 3 -9 7 3036.91 189.299 4
 -3 -9 -7 3741.18 235.087 3
 -3 -9 -7 3590.5 229.072 2
 3 9 -7 3747.69 211.63 6
 3 -9 6 7458.62 317.98 4
 -3 -9 -6 8326.81 352.05 2
 -3 9 6 7686.07 291.377 8
 -3 9 5 9715.77 323.879 8
 3 -9 5 11701.3 377.136 4
 -3 -9 -5 10450.9 370.705 3
 3 9 -5 10142.4 339.471 6
 -3 -9 -5 11609.1 407.61 2
 3 -9 4 6893.94 288.578 4
 -3 -9 -4 6532.72 311.244 2
 -3 9 4 6605.45 264.162 8
 -3 -9 -4 6860.69 296.289 3
 3 9 -3 3466.62 231.329 7
 -3 9 3 3237.67 188.492 8
 -3 -9 -3 3503.76 225.695 2
 3 -9 3 2928 188.022 4
 3 -9 2 3837.43 213.879 4
 -3 9 2 3524.98 210.479 5
 -3 9 1 797.197 102.136 5
 3 -9 1 642.685 88.6744 4
 3 9 -1 709.533 106.029 7
 -3 -9 0 138.675 63.25 2
 3 9 0 180.766 60.7397 7
 3 -9 0 130.641 47.3107 3
 3 -9 0 79.1486 44.1722 4
 -3 -9 1 906.592 138.943 1
 -3 9 -1 803.691 99.2845 5
 3 -9 -1 618.945 93.2572 4
 -3 -9 1 891.83 128.959 2
 3 -9 -1 866.998 107.615 3
 3 9 1 830.047 110.567 7
 -3 -9 2 2806.17 229.192 2
 3 9 2 2832.56 190.748 7
 -3 -9 2 2831.33 238.907 1
 -3 9 -2 3005.32 181.339 5
 3 -9 -2 2940.12 182.27 4
 3 -9 -2 2922.28 181.846 3
 3 9 3 3313.14 204.37 7
 -3 -9 3 3267.87 258.335 1
 -3 9 -3 3077.02 184.454 5
 3 -9 -3 3097.11 189.486 3
 -3 -9 3 2859.55 225.914 2
 -3 -9 4 6943.82 375.653 1
 3 -9 -4 7358.18 300.465 3
 -3 -9 4 8063.9 404.98 2
 -3 -9 5 10243.6 438.811 1
 -3 -9 5 9138.02 433.494 2
 3 9 5 9426.17 330.785 7
 -3 -9 6 7868.35 386.191 1
 -3 9 -6 7824.88 308.743 6
 -3 -9 7 3785.07 274.303 1
 -3 9 -7 3086.36 209.452 6
 3 9 7 3266.34 212.797 8
 3 9 7 3837.9 223.245 7
 3 -9 -7 3984.28 232.263 3
 -3 -9 8 3259.8 264.31 1
 3 -9 -8 3535.29 217.785 3
 -3 9 -8 2953.83 200.642 6
 -3 -9 9 3057.41 251.965 1
 3 -9 -9 3511.68 223.258 3
 -3 9 -9 3520.04 208.043 6
 3 9 9 3294.51 210.279 8
 -3 -9 10 2701.8 237.188 1
 3 -9 -10 2473.86 187.233 3
 -3 9 -10 2753.76 193.693 6
 3 9 10 2909.99 200.027 8
 -3 -9 11 753.635 136.771 1
 3 -9 -11 762.087 111.332 3
 -3 9 -11 897.004 109.329 6
 3 9 11 856.585 111.12 8
 -3 -9 12 1154.24 156.145 1
 3 9 12 1022.7 119.183 8
 3 -9 -12 1085.79 128.2 3
 -3 9 -12 1178.2 126.353 6
 -3 9 -13 400.355 78.5208 6
 -3 -9 13 409.026 104.886 1
 3 -9 -13 456.41 85.456 3
 3 9 13 366.84 77.1402 8
 -3 -10 -12 1673.26 162.714 3
 3 -10 12 1583.45 173.795 1
 -3 10 12 1290.51 124.704 8
 -3 10 11 75.5488 49.793 8
 3 -10 10 3447.73 263.644 1
 -3 -10 -10 4122.04 255.527 3
 3 10 -10 3852.61 225.575 6
 -3 10 10 3591.97 206.904 8
 -3 -10 -9 720.606 107.806 2
 -3 10 9 921.078 110.135 8
 3 -10 8 7674.29 316.916 4
 -3 -10 -8 7488.52 339.398 3
 3 -10 8 7466.51 383.545 1
 3 10 -8 7154.66 307.967 6
 -3 -10 -8 8418.57 359.889 2
 -3 10 8 7306.12 292.878 8
 3 -10 7 2611.54 183.271 4
 -3 10 7 1885.13 152.318 8
 -3 -10 -7 2482.51 196.286 3
 3 -10 7 2371.31 225.45 1
 3 10 -7 1950.63 168.127 6
 -3 -10 -7 1747.87 169.462 2
 -3 -10 -6 22459.6 590.447 2
 -3 -10 -6 22882.1 581.762 3
 -3 10 6 22572.7 514.949 8
 3 -10 5 4178.13 232.684 4
 -3 10 5 5533.76 256.589 8
 -3 -10 -4 39632.1 775.991 2
 3 -10 4 35248.6 692.658 4
 3 -10 3 6966.68 299.72 4
 3 10 -3 6892.24 338.492 7
 -3 10 3 6009.45 285.685 5
 -3 10 2 58293.8 866.004 5
 3 10 -2 56022 989.079 7
 -3 -10 -1 5856.55 312.082 2
 3 10 -1 5932.88 304.571 7
 -3 -10 0 75666.8 1140.22 2
 3 10 0 78355.4 1078.83 7
 3 -10 0 75857.2 959.813 4
 -3 -10 1 5554.81 340.699 1
 3 10 1 5101.42 271.222 7
 -3 -10 2 60341.9 1135.76 1
 3 10 2 55532.6 865.891 7
 -3 -10 3 5757.57 362.732 1
 3 10 3 5231.53 262.306 7
 3 -10 -3 5071.44 248.622 3
 3 -10 -4 41770.4 731.161 3
 -3 -10 4 42564.9 954.92 1
 3 -10 -5 4987.4 263.375 3
 -3 -10 5 4884.23 335.781 1
 -3 -10 6 24622.1 714.48 1
 3 -10 -6 25102.6 582.552 3
 3 10 6 23099.4 564.022 8
 -3 10 -6 23124.5 570.926 6
 -3 -10 7 1794.96 204.631 1
 3 -10 -7 1476.08 158.991 3
 3 10 7 1561.74 154.617 8
 -3 10 -7 1973.57 166.633 6
 -3 -10 8 10156.9 447.614 1
 -3 10 -8 9565.8 346.148 6
 3 -10 -8 10687.8 391.625 3
 -3 10 -9 621.367 105.602 6
 -3 -10 9 886.445 143.701 1
 3 10 9 652.643 102.626 8
 -3 10 -10 4548.27 236.708 6
 3 10 10 4030.69 233.174 8
 -3 -10 10 3729.28 277.859 1
 -3 10 -11 53.6553 48.9403 6
 3 -10 -11 91.4683 60.0002 3
 -3 -10 11 56.0026 70.3742 1
 3 10 11 96.5682 53.0531 8
 -3 10 -12 1407.19 138.434 6
 3 10 12 1556.95 143.14 8
 -3 -10 12 1616.48 182.953 1
 3 11 -11 47.4859 52.6518 6
 -3 -11 -11 84.4719 58.3625 3
 -3 11 11 68.2478 43.1659 8
 3 -11 11 -7.23366 47.233 1
 -3 11 10 1687.92 145.451 8
 -3 11 9 597.857 93.5749 8
 -3 -11 -9 497.512 100.667 3
 -3 11 8 1570.9 144.169 8
 3 -11 8 1683.19 157.886 4
 -3 11 7 1061.62 121.262 8
 3 -11 7 1180.74 134.285 4
 -3 -11 -6 3031.07 222.087 2
 3 -11 6 3662.77 217.663 4
 3 11 -5 578.285 110.63 7
 -3 -11 -5 461.955 95.6383 2
 3 -11 5 464.349 85.1575 4
 -3 -11 -4 2117.93 183.172 2
 -3 11 4 2048.2 179.488 5
 3 11 -3 775.287 124.803 7
 -3 -11 -3 701.516 114.355 2
 3 -11 3 483.309 97.489 4
 -3 -11 -2 1416.06 159.144 2
 3 11 -2 1494.37 166.564 7
 -3 -11 -1 512.735 100.939 2
 3 11 -1 369.2 85.0598 7
 -3 -11 0 1566.77 169.849 2
 -3 -11 2 1149.3 173.183 1
 3 -11 -2 1244.16 139.048 3
 -3 -11 3 848.07 151.583 1
 3 -11 -3 813.942 111.542 3
 3 -11 -5 631.844 100.51 3
 -3 11 -5 587.246 98.2318 6
 -3 -11 5 555.617 133.362 1
 3 11 5 599.173 107.945 8
 3 -11 -6 3003.43 208.113 3
 -3 11 -6 2929.16 204.343 6
 -3 -11 6 3470.91 303.39 1
 3 11 6 2980.26 211.806 8
 -3 -11 7 1275.79 192.691 1
 -3 11 -7 1356.9 144.032 6
 3 -11 -7 1536.33 155.644 3
 3 -11 -8 2327.56 187.346 3
 -3 11 -8 1990.48 170.777 6
 -3 -11 8 2236.04 228.85 1
 3 11 8 1892.56 167.256 8
 3 -11 -9 836.401 119.16 3
 -3 11 -9 664.118 101.977 6
 -3 -11 9 593.553 135.939 1
 3 11 9 721.221 119.015 8
 3 -11 -10 1867.81 171.689 3
 -3 11 -10 1990.07 165.734 6
 -3 -11 10 2134.08 215.583 1
 3 11 10 1823.42 161.974 8
 -3 -11 11 122.527 74.5406 1
 -3 11 -11 136.038 64.878 6
 3 11 11 34.8243 45.6196 8
 3 -11 -11 64.5442 58.2412 3
 -3 -12 -8 4185.52 263.804 2
 -3 -12 -7 4074.33 252.359 2
 3 -12 7 4822.08 263.378 4
 -3 -12 -6 3521.92 251.33 2
 -3 -12 -5 6184.36 322.711 2
 -3 -12 -4 8063.61 380.587 2
 -3 -12 -3 6981.53 353.175 2
 -3 -12 4 7773.46 443.56 1
 3 12 5 7787.95 352.056 8
 3 -12 -5 8398.07 350.04 3
 3 12 6 5135.9 281.753 8
 3 -12 -6 4130.39 249.935 3
 3 12 7 5896.89 297.487 8
 3 -12 -7 5739.77 293.308 3
 -3 -12 7 4957.36 352.098 1
 -3 -12 8 3089.4 278.735 1
 3 12 8 3031.56 217.381 8
 3 -12 -8 2990.74 213.627 3
 -3 12 -8 2637.68 200.973 6
 -3 -12 9 1882.06 221.703 1
 3 12 9 2059.54 178.329 8
 3 -12 -9 1822.85 171.356 3
 -3 12 -9 1878.82 171.476 6
 3 12 10 681.127 107.929 8
 3 -12 -10 806.029 122.293 3
 -3 12 -10 695.96 119.152 6
 -4 0 0 192260 1294.87 8
 4 0 0 172124 1150.84 6
 4 0 1 4151.52 166.719 6
 4 0 -1 4442.25 172.466 6
 4 0 -1 6231.96 203.527 4
 -4 0 1 4789.64 196.617 8
 -4 0 -1 4532.71 193.779 8
 -4 0 1 4127.7 234.66 2
 4 0 1 6138.82 197.828 7
 -4 0 -1 4369.97 160.906 5
 4 0 2 210151 1200.48 4
 4 0 -2 226541 1269.17 6
 4 0 -2 223774 1230.95 4
 -4 0 -2 214539 1411.73 8
 -4 0 2 237625 1421.97 8
 -4 0 -2 196956 1180.59 5
 -4 0 2 214565 1510.1 1
 -4 0 2 228390 1871.09 2
 4 0 -2 210996 1177.02 3
 4 0 2 215719 1230.92 7
 4 0 -3 5449.39 189.722 3
 4 0 -3 5391.16 193.699 4
 4 0 3 5119.16 185.922 7
 4 0 3 4635.47 173.874 4
 -4 0 3 6277.84 255.135 1
 -4 0 -3 4712.88 199.783 2
 -4 0 -3 5170.72 190.738 5
 4 0 -3 4446.84 189.052 6
 -4 0 3 5583.61 321.447 2
 -4 0 3 5597.71 218.54 8
 -4 0 4 81679.8 933.97 1
 4 0 4 77457.3 709.301 4
 -4 0 -4 75344.2 762.344 5
 4 0 -4 84173.2 793.835 4
 -4 0 -4 73083.9 807.928 2
 4 0 4 80324.8 765.915 7
 -4 0 4 81171.8 1267.65 2
 4 0 -4 70785.4 753.268 6
 4 0 -4 78103.7 730.923 3
 -4 0 5 15038.7 400.739 1
 4 0 5 14801.8 334.766 4
 -4 0 -5 15989.2 495.825 3
 4 0 -5 13641 327.071 4
 -4 0 -5 14785.5 361.215 2
 -4 0 5 14728.5 565.215 2
 4 0 -5 15795 343.091 3
 -4 0 -6 7495.3 344.83 3
 4 0 6 8521.56 265.594 7
 -4 0 6 8207.78 304.892 1
 -4 0 -6 7055.23 260.178 2
 -4 0 6 7298.46 260.025 8
 4 0 -6 6416.63 254.891 6
 4 0 -6 7560.08 259.849 4
 -4 0 6 7087.85 410.442 2
 -4 0 -6 7772.73 272.565 5
 4 0 -6 8158.97 261.487 3
 -4 0 -7 12354.8 432.939 3
 4 0 7 11646.6 240.515 1
 4 0 7 11171.1 318.624 4
 -4 0 7 11455.1 375.771 1
 4 0 -7 13319.4 376.812 6
 -4 0 -7 12069 362.029 2
 4 0 -7 12283.6 336.37 4
 -4 0 7 11461.6 328.649 8
 -4 0 -7 10866.5 323.204 5
 -4 0 7 12828.7 567.983 2
 4 0 -7 11184.1 323.585 3
 4 0 7 11456.2 316.324 7
 -4 0 8 264.772 62.0256 8
 -4 0 -8 153.226 53.8629 2
 -4 0 -8 145.321 68.3061 3
 4 0 -8 186.439 58.831 3
 -4 0 8 208.165 68.6669 1
 4 0 8 185.009 50.7807 4
 4 0 -8 158.89 60.3666 6
 4 0 9 5904.39 250.781 4
 -4 0 -9 6007.34 253.278 5
 4 0 9 5618.71 268.668 1
 -4 0 9 5726 285.925 1
 4 0 -9 5339.02 240.979 4
 -4 0 -9 6040.4 297.543 3
 -4 0 9 5649.86 406.201 2
 4 0 -9 6768.02 278.897 3
 4 0 9 6238.79 250.641 7
 4 0 -10 426.169 80.0112 3
 4 0 10 407.587 73.0791 7
 4 0 -10 551.378 87.1845 4
 -4 0 10 609.759 108.334 1
 -4 0 10 576.519 88.161 8
 -4 0 -10 556.586 82.1733 6
 4 0 10 626.433 101.974 1
 -4 0 -10 516.115 105.48 3
 -4 0 -10 574.247 87.2691 5
 -4 0 10 539.574 146.795 2
 4 0 -10 456.926 82.9239 6
 4 0 11 4702.64 229.432 7
 -4 0 11 5486.67 255.006 8
 4 0 -11 5090.07 242.073 4
 -4 0 11 4743.51 284.328 1
 4 0 11 4438.43 231.836 8
 4 0 -11 4923.95 248.23 3
 -4 0 11 5607.87 411.578 2
 -4 0 -11 4794.88 235.531 6
 4 0 -11 6121.34 273.289 6
 -4 0 -11 5242.92 263.348 5
 -4 0 -12 519.334 97.6952 3
 -4 0 12 509.525 99.8978 1
 4 0 -12 542.966 87.7238 4
 -4 0 -12 601.173 97.691 5
 -4 0 12 572.035 152.908 2
 4 0 12 488.451 92.6886 1
 4 0 12 557.983 88.7605 7
 -4 0 12 515.852 84.7901 8
 4 0 -12 256.45 71.5236 6
 -4 0 -13 2229.51 188.577 3
 -4 0 13 1986.71 160.789 8
 4 0 13 1808.68 162.953 1
 -4 0 -13 1991.75 160.677 6
 -4 0 14 812.213 106.942 8
 -4 0 -14 948.441 123.649 5
 4 0 -14 861.181 109.308 4
 4 0 14 969.858 114.134 7
 4 0 14 696.293 106.998 1
 -4 0 14 794.047 167.364 2
 4 0 -14 582.923 103.352 6
 -4 0 -14 826.236 120.093 3
 4 0 -15 1334.59 148.704 6
 4 0 15 1518.16 144.793 7
 -4 0 -15 1450.36 147.93 5
 4 0 -15 1606.69 141.568 4
 -4 0 15 1502.29 148.233 8
 4 0 16 726.789 102.287 7
 4 0 -16 855.003 112.537 4
 -4 0 -16 827.908 117.346 5
 -4 0 16 794.127 169.377 2
 -4 0 -16 711.204 111.386 3
 -4 1 16 220.302 63.8213 8
 4 -1 16 150.243 66.8501 1
 -4 -1 -16 252.498 75.1886 3
 4 1 -16 138.318 60.5618 6
 4 1 -15 778.499 102.99 4
 4 -1 15 739.973 113.315 1
 4 -1 15 986.495 122.184 7
 -4 1 15 783.328 165.372 2
 -4 -1 -15 617.449 104.991 5
 4 1 -14 120.144 62.1175 6
 4 1 -14 278.807 68.5417 4
 -4 -1 -14 317.148 79.6484 5
 4 -1 14 302.41 80.1126 1
 4 -1 14 396.508 81.5468 7
 -4 -1 -14 319.295 84.1698 3
 -4 1 14 414.48 143.511 2
 -4 1 14 306.931 68.5089 8
 4 1 -13 2889.74 195.811 6
 -4 1 13 2497.88 174.43 8
 -4 -1 -13 2545.65 197.926 3
 -4 -1 -12 763.779 118.073 3
 4 1 -12 661.384 107.434 6
 4 -1 12 739.92 100.161 7
 4 -1 12 743.914 112.239 1
 -4 1 12 736.739 95.7663 8
 -4 -1 -12 677.57 103.757 5
 -4 -1 -11 8040.83 298.859 6
 4 -1 11 9130.6 323.097 7
 -4 -1 -11 8468.45 335.825 5
 4 -1 11 7992.19 332.58 1
 -4 -1 -10 9937.13 356.037 5
 -4 1 10 9228.05 306.924 8
 4 1 -10 9651.08 343.153 6
 4 -1 10 8269.09 305.711 7
 4 -1 10 9104.75 343.048 1
 4 -1 10 10288.6 343.836 4
 4 -1 10 8906.07 311.113 8
 -4 1 10 8944.02 378.444 1
 4 1 -10 9852.85 334.438 3
 -4 -1 -10 9493.1 386.119 3
 -4 1 9 16110.5 479.587 1
 -4 -1 -9 16581.9 492.809 3
 4 -1 9 16644.3 463.253 1
 -4 1 9 16973.3 409.12 8
 4 -1 9 17457.7 423.69 7
 4 1 -9 17628.1 438.844 6
 -4 -1 -9 15598.1 422.181 5
 4 -1 9 15769.7 405.275 4
 -4 1 8 34140.1 666.751 1
 4 -1 8 35928.6 580.673 7
 4 -1 8 34900.5 570.383 4
 4 1 -8 34812.4 578.066 3
 4 -1 7 54558.2 723.432 4
 4 1 -7 57039.4 704.281 3
 4 -1 7 60135.6 574.512 1
 4 -1 7 54451.3 690.008 7
 -4 -1 -7 49788.3 855.978 3
 4 1 -7 59688.2 770.28 6
 -4 1 7 48924.7 765.297 1
 -4 -1 -7 66858.6 798.004 5
 -4 1 7 61319.2 756.654 8
 -4 -1 -7 55139.2 789.802 2
 -4 1 6 80492.9 940.676 1
 4 1 -6 85109.8 817.208 3
 4 -1 6 77800.9 603.161 1
 4 -1 6 81167.1 815.752 7
 -4 -1 -6 79680.3 1082.35 3
 4 1 -6 79783.6 858.162 6
 4 -1 6 88031.4 865.618 4
 -4 -1 -6 77019.5 827.6 5
 -4 -1 -6 81696.8 921.861 2
 -4 1 6 79490.8 837.981 8
 -4 -1 -5 99163.4 998.844 2
 4 1 -5 98906.1 835.657 3
 -4 1 5 105810 1066.5 1
 -4 1 5 105411 947.519 8
 4 1 -5 104598 919.868 4
 4 -1 5 108198 942.809 4
 4 1 -5 111048 990.459 6
 -4 -1 -5 110654 1289.82 3
 4 -1 5 102631 925.699 7
 -4 -1 -4 73149.7 743.002 5
 -4 1 4 77043.6 904.439 1
 -4 -1 -4 66630.8 814.415 2
 -4 1 4 69419.8 1155.92 2
 -4 1 4 73480.8 768.492 8
 4 1 -4 71029.3 761.835 6
 4 -1 4 68860.9 709.135 4
 -4 -1 -4 69907.3 1018.34 3
 4 1 -4 75862.4 706.444 3
 4 1 -4 70966.3 718.128 4
 4 -1 4 63895.3 659.659 7
 -4 1 3 187061 1252.64 8
 4 -1 3 177132 1130.15 4
 -4 1 3 180982 1804.02 2
 -4 -1 -3 179834 1167.71 5
 4 -1 3 191237 1141.19 7
 4 1 -3 196152 1190.05 4
 4 1 -3 188044 1106.89 3
 -4 -1 -2 116783 1038.67 2
 -4 1 2 116539 971.145 8
 -4 -1 -2 121147 879.248 5
 4 -1 2 119138 850.95 7
 4 -1 2 119725 941.18 4
 4 -1 1 222404 1314.39 6
 4 1 -1 252297 1387.64 7
 -4 -1 -1 278660 1684.25 8
 -4 1 1 268801 1485.02 8
 4 1 -1 237371 1297.29 6
 4 1 -1 250580 1233.8 4
 4 -1 1 210758 1220.57 4
 -4 -1 -1 262128 1634.74 2
 4 -1 1 237537 1222.23 7
 -4 1 1 255980 1308.72 5
 -4 -1 0 117589 1166.97 2
 -4 1 0 109848 1043.02 2
 4 1 0 106095 893.061 6
 -4 1 0 117392 870.829 5
 -4 -1 0 110155 776.74 5
 4 1 0 118200 921.541 7
 4 -1 0 108361 789.668 7
 -4 1 0 115306 950.969 8
 -4 -1 0 115129 1027.75 8
 4 -1 0 112635 859.276 4
 4 -1 -1 263651 1419.2 4
 4 1 1 260113 1223.43 4
 4 1 1 256255 1413.01 7
 4 -1 -1 253762 1246.31 7
 -4 -1 1 252230 1208.85 5
 -4 1 -1 256379 1348.68 5
 4 1 1 246265 1272.14 6
 4 -1 -1 253334 1421.48 6
 -4 1 -1 255142 1503.27 2
 -4 -1 1 258177 1840.06 2
 -4 -1 1 244879 1506.86 8
 -4 1 -2 104830 835.982 5
 -4 -1 2 113793 1342.33 2
 -4 -1 2 109707 1094.4 1
 -4 1 -2 127480 1066.58 8
 -4 -1 2 113199 992.369 8
 4 1 2 115586 816.75 4
 4 -1 -2 111642 875.892 3
 4 1 2 115919 882.166 6
 4 1 2 107603 866.417 7
 -4 1 -2 107453 913.756 2
 4 -1 -2 114048 910.641 6
 4 -1 -2 136723 965.5 4
 -4 -1 3 171461 1387.05 1
 4 -1 -3 188554 1163.2 3
 4 -1 -3 166420 1152.13 4
 -4 1 -3 167554 1134.79 5
 -4 -1 3 177512 1286.74 8
 -4 1 -3 193064 1195.32 2
 4 -1 -3 187135 1180.81 6
 -4 -1 3 173955 1785.18 2
 4 1 3 183541 1193.59 7
 -4 1 -4 70458.5 755.986 5
 4 -1 -4 70883.4 783.31 6
 4 1 4 67070.7 718.636 7
 -4 -1 4 73396.2 829.803 8
 4 -1 -4 69119.3 732.767 4
 4 -1 -4 69573.8 719.73 3
 4 1 4 66191 640.968 4
 -4 -1 4 69989.2 1191.2 2
 -4 1 -5 105775 927.351 2
 4 -1 -5 107482 943.658 3
 -4 1 -5 105455 970.083 5
 -4 -1 5 107002 1536.16 2
 4 1 5 102950 915.018 7
 -4 1 -6 79261.6 1136.34 3
 -4 -1 6 80070.6 903.82 8
 4 1 6 83107.4 817.514 4
 4 -1 -6 76322.3 840.077 4
 4 1 6 79914.8 835.98 7
 -4 -1 6 79536.5 992.248 1
 -4 1 -6 91487.8 920.032 2
 -4 -1 6 83368.8 1400.87 2
 4 -1 -6 75809.2 836.763 6
 4 -1 -6 90604.4 900.995 3
 -4 1 -6 84245.1 913.278 5
 4 1 7 59686.3 732.203 7
 4 1 7 64067.2 566.528 1
 -4 1 -7 66380.7 799.191 5
 -4 1 -7 62042.6 788.979 2
 -4 1 -7 63307.1 989.513 3
 -4 -1 7 60901.9 1228.36 2
 4 -1 -7 57321.2 732.733 4
 -4 -1 7 60177.6 793.479 8
 4 1 7 55252.7 689.957 4
 4 -1 -7 58483.2 740.39 3
 -4 -1 7 57719 869.957 1
 4 1 8 34337.8 419.698 1
 -4 1 -8 34243.3 726.813 3
 -4 1 -8 38850.2 649.888 2
 4 1 8 35453 582.273 4
 4 -1 -8 29766.6 580.172 6
 -4 -1 8 34713.5 607.819 8
 4 -1 -8 33575.9 581.813 3
 -4 -1 8 33347.3 674.454 1
 -4 1 -9 18142 512.781 3
 -4 -1 9 15815.9 429.246 8
 4 -1 -9 13331.7 405.485 6
 -4 1 -9 14340.6 385.847 5
 -4 -1 9 19492.5 753.299 2
 4 -1 -9 16497.7 425.957 4
 4 1 9 16007.1 394.081 7
 -4 -1 10 8288.96 318.181 8
 4 -1 -10 7428.18 296.387 3
 4 1 10 8300.53 293.489 7
 4 -1 -10 7787.64 300.02 4
 -4 -1 10 7859.76 348.49 1
 4 1 10 8423.78 310.566 8
 4 1 10 8505.3 339.567 1
 -4 1 -10 7790.03 285.043 6
 -4 1 -10 7774.15 298.051 5
 -4 1 -10 8132.62 351.562 3
 -4 -1 10 7104.23 483.179 2
 4 -1 -11 8136.75 319.335 3
 -4 -1 11 8718.15 509.121 2
 -4 1 -11 9305.24 323.242 6
 4 1 11 8630.59 307.024 7
 4 1 11 8501.93 321.598 8
 -4 1 -11 8680.65 331.427 5
 4 -1 -11 7184.25 319.607 6
 -4 -1 11 8269.96 366.637 1
 4 -1 -11 8472.25 318.843 4
 -4 1 -11 10046.1 405.151 3
 -4 -1 11 8657.05 329.897 8
 4 -1 -12 805.612 109.904 3
 4 1 12 973.237 112.026 7
 -4 -1 12 1043.14 121.081 8
 -4 1 -12 1046.68 136.753 3
 -4 1 -12 845.243 115.491 5
 -4 -1 12 925.899 181.783 2
 -4 1 -12 1075.47 115.98 6
 4 1 12 937.548 121.539 1
 4 -1 -12 762.937 111.306 6
 -4 -1 12 1050.09 144.664 1
 4 -1 -12 970.563 113.466 4
 4 -1 -13 2756.59 200.492 6
 4 1 13 2519.43 184.745 8
 -4 -1 13 2568.91 195.976 8
 4 -1 -13 2681.04 205.284 3
 4 1 13 2703.19 200.923 1
 -4 -1 13 2492.76 216.05 1
 -4 1 -13 2653.83 180.287 6
 -4 1 -13 2625.7 204.094 3
 4 -1 -14 347.8 84.3386 6
 4 -1 -14 403.366 76.3275 4
 -4 1 -14 428.531 90.6855 5
 4 1 14 336.981 81.1083 1
 -4 -1 14 333.509 80.7969 8
 -4 1 -14 377.044 80.0068 6
 -4 1 -14 366.912 86.2096 3
 -4 -1 14 375.037 130.43 2
 4 1 14 411.698 77.6971 7
 -4 1 -15 734.098 114.519 5
 -4 -1 15 609.266 157.807 2
 4 1 15 603.471 97.3485 7
 4 -1 -15 677.208 100.502 4
 -4 -1 16 204.246 107.77 2
 4 1 16 213.439 74.6905 1
 4 -1 -16 242.344 66.303 4
 4 2 -15 1637.19 159.718 6
 4 2 -15 1050.47 115.22 4
 4 -2 15 1088.89 132.589 7
 -4 2 15 1343.17 210.961 2
 -4 -2 -15 1155.74 138.953 5
 -4 -2 -15 1310.09 143.461 3
 -4 2 15 1098.79 117.665 8
 4 -2 15 1145.07 139.886 1
 -4 -2 -14 1900 172.051 3
 -4 2 14 1791.48 148.437 8
 -4 -2 -14 2111.81 182.644 5
 4 2 -14 1975.59 159.957 6
 -4 -2 -13 2406.06 191.913 5
 4 -2 13 2118.37 174.655 7
 4 -2 12 1665.03 149.383 7
 -4 -2 -12 2008.03 176.339 3
 -4 -2 -12 2245.45 188.347 5
 4 2 -12 1479.42 141.649 6
 4 -2 12 1563.89 153.105 1
 4 -2 11 4670.94 237.614 7
 -4 -2 -11 4702.49 259.04 3
 -4 2 11 4671.51 223.716 8
 -4 -2 -11 4585.05 253.502 5
 4 2 -11 3869.25 219.197 6
 4 -2 11 5118.99 278.599 1
 4 2 -10 4530.45 232.212 6
 4 -2 10 4187.1 240.383 7
 -4 2 10 4362.55 214.224 8
 -4 -2 -10 4859.24 253.897 5
 4 -2 10 4327.38 242.932 1
 4 -2 10 4431.36 227.751 4
 -4 -2 -10 4436.97 249.52 2
 -4 -2 -10 3690.68 197.817 6
 -4 -2 -10 4905.6 280.124 3
 -4 2 9 9196.88 302.693 8
 -4 -2 -9 7911.88 271.092 6
 -4 -2 -9 9342.7 382.696 3
 -4 -2 -9 10217.1 355.832 5
 4 -2 9 9085.64 344.073 1
 4 2 -9 8916.23 314.202 6
 4 -2 9 7932.81 292.684 7
 4 -2 9 8541.31 296.497 4
 -4 -2 -9 8536 326.155 2
 -4 2 8 5479.45 228.329 8
 -4 -2 -8 5752.74 278.862 2
 4 2 -8 5102.87 233.163 6
 -4 -2 -8 5291.62 276.454 3
 4 -2 8 5140.55 265.244 1
 4 -2 7 21539.2 464.444 4
 4 2 -7 20608.8 408.048 3
 4 -2 7 20762.4 432.821 7
 -4 -2 -7 15940 384.646 5
 -4 -2 -7 18062 453.582 2
 -4 2 7 21365.4 436.745 8
 -4 -2 -7 17561.6 488.306 3
 4 2 -7 20517.7 445.603 6
 -4 2 7 17456.2 444.17 1
 4 -2 7 15392.5 407.26 1
 4 2 -6 12318.2 293.971 3
 4 -2 6 12995.3 342.905 4
 -4 -2 -6 11688.8 355.629 2
 -4 -2 -6 11538.6 322.281 5
 4 -2 6 12686.5 251.195 1
 -4 -2 -6 12526.3 427.397 3
 4 2 -6 11269.8 325.031 6
 -4 2 6 11275 311.489 8
 -4 2 5 27354.2 469.562 8
 4 2 -5 30446.2 443.465 3
 4 -2 5 25239.7 451.098 4
 4 -2 5 27770.2 449.701 7
 4 2 -5 29104.8 509.314 6
 -4 -2 -5 25695.2 598.434 3
 4 -2 5 26338.3 338.424 1
 -4 2 4 63877.7 706.224 8
 4 -2 4 67714.8 679.281 7
 -4 -2 -4 70415.9 1004.24 3
 -4 -2 -4 65951.3 715.628 5
 4 -2 4 65266.4 703.242 4
 -4 -2 -4 63446.5 817.631 2
 -4 2 4 66928.2 1136.04 2
 4 2 -3 70747.1 724.571 6
 -4 -2 -3 69242.6 844.402 2
 4 2 -3 63360.8 664.279 4
 4 -2 3 57436.2 595.988 7
 -4 2 3 69005.7 715.103 8
 -4 2 3 66460.5 1057.16 2
 4 -2 3 65347.9 708.111 4
 -4 -2 -3 71088.3 996.127 3
 -4 -2 -3 59697.7 640.993 5
 -4 2 2 125796 1383.74 2
 4 2 -2 131407 907.31 4
 -4 -2 -2 134058 1164.73 2
 -4 -2 -2 123735 892.999 5
 4 -2 2 125628 840.926 7
 -4 2 2 136390 1021.24 8
 4 -2 2 126198 990.079 4
 4 -2 1 33348.5 487.403 4
 4 2 -1 39262.4 549.106 7
 -4 -2 -1 38643.1 634.417 2
 -4 2 1 35173.7 492.323 5
 -4 -2 -1 38675.8 458.144 5
 -4 -2 -1 39041.4 624.64 8
 -4 2 1 37537.5 528.607 8
 4 2 -1 36032.3 476.577 6
 -4 2 1 36225.1 666.078 2
 4 -2 0 193777 984.415 7
 4 2 0 211876 1313.86 7
 4 -2 0 223569 1262.12 6
 4 2 0 209878 1181.34 6
 -4 2 0 205046 1250.09 8
 -4 -2 0 245837 1550.61 8
 -4 -2 0 226012 1662.4 2
 -4 2 0 202721 1415.65 2
 -4 -2 0 212339 1041.7 5
 -4 2 0 217682 1244.66 5
 4 2 0 201799 1087.78 4
 4 -2 0 181024 1165.55 4
 -4 2 -1 33398.9 485.177 5
 -4 -2 1 33657.5 394.027 5
 -4 -2 1 39905.4 618.621 8
 4 -2 -1 38012.3 505.863 3
 4 -2 -1 47701.9 574.05 4
 4 2 1 33887.7 393.103 4
 4 -2 -1 26862.6 352.442 7
 4 2 1 36765.3 539.927 7
 4 2 1 36502.4 484.383 6
 4 -2 -1 30340.5 511.036 6
 -4 -2 1 34020.3 630.703 1
 -4 2 -1 33571 490.175 2
 -4 -2 1 34038.8 674.411 2
 -4 2 -2 114301 932.442 5
 -4 -2 2 131477 1418.38 2
 -4 2 -2 107918 824.426 2
 -4 -2 2 125116 801.801 5
 4 2 2 157053 943.831 4
 -4 -2 2 121645 1182.24 1
 4 2 2 124707 993.777 7
 4 -2 -2 169602 931.022 7
 4 2 2 126069 867.142 6
 -4 -2 2 129005 1110.94 8
 4 -2 -2 127495 963.838 3
 4 -2 -2 96668.5 921.854 4
 4 -2 -2 110720 1005.54 6
 4 2 3 63629.3 576.089 4
 -4 -2 3 65931.5 895.724 1
 -4 2 -3 67793.4 635.3 2
 4 2 3 68689.3 734.742 7
 -4 -2 3 62535.4 1068.27 2
 -4 -2 3 68133.9 804.066 8
 -4 2 -3 62557 718.675 5
 4 -2 -3 69562.3 726.59 6
 4 -2 -3 66920 695.546 3
 4 -2 -3 66557.2 702.889 4
 4 -2 -4 65338.7 720.715 6
 -4 -2 4 72906.9 921.28 1
 -4 -2 4 63456.8 799.425 8
 4 -2 -4 64499.4 717.45 3
 -4 2 -4 70955.4 664.516 2
 -4 -2 5 31014.7 608.668 1
 4 2 5 28967 435.731 4
 4 -2 -5 29473.6 507.982 3
 4 2 5 30109.9 509.418 7
 4 -2 -5 30245.1 508.681 4
 -4 -2 5 31173.6 839.277 2
 -4 2 -5 30525.7 509.905 5
 -4 -2 6 10676.3 342.97 8
 -4 2 -6 10075.2 288.247 2
 -4 2 -6 9899.53 407.632 3
 -4 2 -6 11777.8 325.239 5
 4 -2 -6 12306.8 350.094 6
 4 -2 -6 10438.2 314.482 4
 4 2 6 10537 298.042 7
 -4 -2 6 12388.2 560.334 2
 4 2 6 10555.6 276.622 4
 4 2 7 22396 427.247 4
 -4 -2 7 21196.7 533.044 1
 4 2 7 22467.6 468.904 7
 4 -2 -7 21808.3 464.734 3
 -4 2 -7 21380.4 594.446 3
 -4 2 -7 18859.3 425.333 2
 -4 2 -7 20901.3 463.713 5
 4 -2 -7 23608 486.608 6
 -4 -2 7 22057.8 500.811 8
 -4 -2 7 21015.1 743.456 2
 4 -2 -8 3262.76 187.139 3
 4 -2 -8 3334.08 191.646 6
 -4 -2 8 3187.87 196.618 8
 -4 2 -8 2723.95 170.28 5
 4 2 8 3230.59 131.209 1
 -4 -2 8 3035.78 213.38 1
 4 2 8 2907.17 164.957 7
 -4 2 -8 3117.55 230.951 3
 4 2 9 9948.57 314.61 7
 -4 -2 9 9904.2 381.798 1
 -4 2 -9 10613.9 397.396 3
 4 2 9 11630.9 279.401 1
 -4 2 -9 9996.36 329.177 5
 4 -2 -9 9560.93 332.732 4
 4 -2 -9 9957.03 333.454 3
 -4 -2 9 11082.7 570.014 2
 -4 2 -10 3533.93 233.419 3
 4 -2 -10 3176.79 194.973 3
 4 2 10 3153.48 192.621 8
 4 2 10 3192.02 180.912 7
 -4 -2 10 3243.15 230.344 1
 4 2 10 3161.38 206.058 1
 4 -2 -10 4050.2 223.774 4
 -4 2 -10 3104.61 183.573 6
 -4 2 -10 3078.37 182.363 5
 4 -2 -10 3422.07 206.453 6
 -4 -2 10 3504.99 335.27 2
 -4 -2 10 3712.24 225.405 8
 4 -2 -11 3998.64 223.843 3
 4 2 11 4349.66 228.898 8
 4 2 11 4811.69 227.918 7
 -4 -2 11 4028.21 258.962 1
 4 2 11 3998.41 238.437 1
 4 -2 -11 4541.93 246.603 6
 -4 -2 11 4725.71 389.333 2
 -4 2 -11 4328.79 226.919 5
 -4 2 -11 5218.42 296.001 3
 -4 -2 11 4499.43 251.045 8
 4 -2 -12 1068.68 127.589 6
 4 -2 -12 884.711 114.609 3
 4 2 12 1000.9 116.968 8
 4 2 12 965.376 107.053 7
 -4 -2 12 917.984 133.882 1
 -4 -2 12 1023.38 200.204 2
 4 -2 -12 1160.89 126.319 4
 -4 2 -12 977.412 111.13 6
 4 2 12 919.969 120.55 1
 -4 2 -12 1120.81 128.285 5
 -4 -2 12 1103.1 133.729 8
 -4 2 -12 996.454 134.556 3
 4 2 13 1937.77 163.865 8
 4 -2 -13 1823.79 160.317 3
 4 2 13 2019.47 157.618 7
 4 -2 -13 1591.88 163.13 6
 4 2 13 1998.91 176.153 1
 -4 2 -13 1618.69 163.597 3
 -4 -2 13 1768.27 178.891 1
 -4 2 -13 2078.5 160.235 6
 -4 -2 13 2014.86 182.251 8
 4 2 14 1566.01 146.69 8
 4 -2 -14 1461.58 143.233 4
 4 2 14 1635.56 159.281 1
 -4 -2 14 1643.95 242.232 2
 -4 2 -14 1773.95 152.414 6
 4 -2 -14 1739.36 153.835 3
 4 2 14 1469.78 138.964 7
 -4 -2 14 1700.96 181.786 1
 -4 2 -15 957.699 123.183 5
 4 -2 -15 948.38 117.302 4
 4 2 15 1163.08 122.34 7
 -4 -2 15 1005.32 196.633 2
 -4 -3 -15 1185.99 135.771 3
 -4 -3 -15 1550.79 157.256 5
 4 -3 15 1420.7 153.936 7
 -4 3 15 1193.59 120.413 8
 4 -3 15 1267.1 148.548 1
 4 3 -15 1334.22 134.919 6
 -4 -3 -14 835.531 123.113 5
 4 -3 14 746.466 114.611 7
 4 3 -14 804.091 108.171 6
 -4 3 14 900.546 105.996 8
 4 -3 14 798.715 116.911 1
 -4 -3 -13 2302.87 192.808 3
 4 3 -13 2683.77 186.112 6
 4 -3 13 2578.66 195.508 7
 -4 3 13 2515.44 167.92 8
 4 -3 13 2116.07 178.18 1
 -4 -3 -13 2532.6 202.826 5
 -4 -3 -12 4063.83 247.738 5
 4 3 -12 4174.11 227.862 6
 -4 3 12 3328.37 192.544 8
 -4 -3 -12 3755.94 242.68 3
 4 -3 12 3286.81 216.695 1
 -4 -3 -11 4144.55 249.382 5
 -4 3 11 4113.49 210.763 8
 4 3 -11 4284.64 235.02 6
 -4 -3 -11 4203.25 250.059 3
 4 -3 11 3541.43 230.198 1
 -4 -3 -10 16032.6 445.868 2
 4 -3 10 17772.4 460.004 7
 -4 -3 -10 15310.5 460.041 5
 -4 3 10 16280.3 407.26 8
 4 3 -10 16340.6 467.405 6
 -4 -3 -10 15334 476.052 3
 4 -3 10 17458.7 490.417 1
 4 -3 9 8921.24 345.149 1
 -4 -3 -9 9679.58 363.735 2
 -4 3 9 9930.6 313.798 8
 4 -3 9 10268.4 350.721 7
 -4 -3 -9 9917.47 356.405 5
 4 -3 9 9108.84 305.672 4
 -4 -3 -9 10658.8 404.883 3
 -4 3 8 27324 513.343 8
 4 -3 8 26758.6 535.099 4
 -4 -3 -7 10704 341.8 5
 -4 3 7 11019.5 316.294 8
 4 -3 7 12301.3 394.13 1
 4 3 -7 12887.6 385.039 6
 4 -3 7 8674.06 288.898 7
 4 -3 7 10665.2 330.613 4
 -4 -3 -7 11321.6 395.521 3
 -4 -3 -7 10662.8 352.097 2
 4 3 -6 74491 848.881 6
 4 -3 6 76738 824.922 7
 -4 -3 -6 79709.2 971.353 2
 -4 3 6 80116.5 837.124 8
 -4 -3 -6 83734.9 873.422 5
 4 -3 6 81733 901.758 4
 4 3 -6 78401.8 737.996 3
 -4 -3 -5 12370.7 372.153 2
 -4 3 5 12179.6 323.108 8
 -4 3 5 12895.5 340.915 1
 4 -3 5 12782.1 312.367 7
 -4 -3 -5 11889.7 401.41 3
 4 3 -5 12507.7 274.447 3
 4 -3 4 232609 1081.49 1
 4 -3 4 237434 1438.52 4
 4 3 -3 15760 321.286 4
 -4 3 3 16546.5 354.451 8
 4 3 -3 15661.7 358.834 6
 -4 -3 -3 12571.3 297.269 5
 4 -3 3 16944.6 309.421 7
 -4 -3 -3 16350.3 423.909 2
 4 -3 3 19525 404.588 4
 -4 3 3 18269.8 563.231 2
 -4 -3 -3 18625.4 500.402 3
 4 -3 2 190593 1090.47 7
 -4 -3 -2 215504 1728.3 3
 4 3 -2 203647 1170.25 4
 4 -3 2 228103 1376.5 4
 -4 -3 -2 222038 1610.87 2
 -4 3 2 221356 1324.62 8
 -4 3 2 208748 1828.66 2
 -4 3 1 309.893 58.5411 5
 4 3 -1 242.661 62.1307 7
 4 3 -1 299.98 58.6549 6
 4 -3 1 289.189 37.8306 7
 4 3 -1 391.691 51.1274 4
 4 -3 1 208.644 53.942 4
 -4 -3 -1 254.047 40.4294 5
 -4 3 1 201.658 73.1993 2
 -4 -3 -1 281.929 74 2
 -4 -3 0 193434 987.482 5
 -4 -3 0 197858 1476.78 8
 -4 3 0 170598 1131.36 8
 4 -3 0 186950 1170.1 3
 -4 3 0 221618 1453.19 2
 -4 -3 0 201599 1596.9 2
 4 3 0 181263 1096.56 6
 4 3 0 191255 995.125 4
 4 -3 0 179226 1166.49 4
 -4 3 0 181127 1181.45 5
 4 3 0 187467 1280.27 7
 4 -3 0 205876 1297.76 6
 4 -3 0 135278 767.508 7
 4 -3 -1 1049.96 94.8135 4
 4 3 1 754.731 59.6459 4
 -4 3 -1 1718.33 116.061 5
 -4 -3 1 1272.75 70.762 5
 4 -3 -1 979.303 92.0735 3
 -4 3 -1 845.828 77.2812 2
 -4 -3 1 1026.41 131.62 2
 -4 -3 1 952.109 124.065 1
 4 3 1 887.537 91.6587 7
 4 -3 -1 1078.49 97.7696 6
 -4 -3 1 478.212 101.156 8
 -4 -3 2 219874 991.537 5
 -4 3 -2 216068 1283.28 5
 4 -3 -2 209560 1348.49 6
 4 -3 -2 208177 1346.63 4
 4 3 2 199425 967.315 4
 4 3 2 231147 1434.58 7
 4 -3 -2 216532 1311.26 3
 -4 -3 2 219039 1577.63 8
 -4 3 -2 230727 1292.93 8
 -4 -3 2 215701 1684.18 1
 -4 -3 2 215071 1840.41 2
 4 -3 -2 199545 914.63 7
 4 3 3 20177.7 290.743 4
 -4 3 -3 16929.9 266.376 2
 -4 3 -3 21037.6 403.999 5
 -4 -3 3 20566.1 455.601 8
 4 -3 -3 19518.8 389.36 3
 4 3 3 21232.9 426.839 7
 -4 -3 3 18793.7 286.168 5
 -4 -3 3 19671 500.741 1
 4 -3 -3 16657.3 374.727 4
 -4 3 -4 237747 1142 2
 -4 -3 4 251214 1825.99 1
 4 3 4 247677 1174.77 4
 4 3 4 286866 1664.28 7
 4 -3 -4 236884 1475.64 3
 -4 3 -4 236069 1473.64 5
 -4 -3 4 222397 1635.98 8
 4 -3 -4 243858 1474.23 6
 -4 -3 4 306950 2556.58 2
 4 3 5 13304.2 343.041 7
 -4 -3 5 12518.8 532.66 2
 4 3 5 12314.8 268.072 4
 -4 3 -5 13858.8 357.518 5
 -4 -3 5 13853.1 420.432 1
 4 -3 -5 15549.3 382.561 4
 4 -3 -5 14130.2 366.398 3
 4 3 6 71478.5 701.391 4
 -4 -3 6 70595.7 919.608 8
 -4 -3 6 74693.3 1003.54 1
 -4 -3 6 69668.9 1326.44 2
 4 -3 -6 69740.7 809.861 6
 4 -3 -6 73890.9 849.463 3
 4 3 6 74382.9 817.348 7
 4 -3 -6 72206.7 862.07 4
 4 3 7 12382.6 341.014 7
 4 -3 -7 12745.4 363.339 4
 4 -3 -7 12132.9 352.591 3
 -4 3 -7 12425.9 464.091 3
 -4 -3 7 12451.7 422.656 1
 -4 3 -7 11059.6 346.743 5
 -4 -3 7 11604.8 565.849 2
 -4 -3 7 13112.5 406.028 8
 4 -3 -7 12223.3 360.561 6
 4 3 8 27583.2 396.44 1
 4 3 8 26434.8 503.266 7
 -4 3 -8 29599.4 690.878 3
 4 -3 -8 31595.1 615.872 6
 -4 3 -8 23317.4 490.544 5
 -4 -3 8 27611.1 892.069 2
 4 -3 -8 30553.3 579.205 4
 -4 -3 8 25433.8 583.604 8
 4 3 9 9973.15 239.097 1
 -4 3 -9 10750.3 409.027 3
 -4 -3 9 9805.68 388.771 1
 -4 3 -9 10919.6 342.947 5
 -4 -3 9 10554.9 570.861 2
 4 3 9 9952.9 314.079 7
 4 -3 -9 9730.37 331.915 3
 -4 3 -10 16456.9 509.253 3
 4 -3 -10 19798.8 486.178 4
 -4 -3 10 18627.8 529.408 8
 4 -3 -10 15388.7 423.667 3
 4 3 10 17381.1 447.428 8
 -4 3 -10 13661.4 377.812 5
 4 -3 -10 15142.8 452.311 6
 -4 -3 10 18067.7 781.367 2
 -4 -3 10 16727.4 514.275 1
 -4 3 -10 15366.9 411.249 6
 4 3 10 13569.6 411.213 1
 4 3 10 16972.9 417.875 7
 -4 -3 11 4268.93 267.83 1
 4 -3 -11 4881.93 268.628 6
 4 -3 -11 4000.58 223.335 3
 -4 -3 11 4334.68 263.425 8
 4 3 11 4106.75 226.027 8
 4 3 11 3861.84 206.55 7
 4 3 11 3803.92 238.332 1
 4 -3 -11 4653.68 243.938 4
 -4 3 -11 4454.61 228.965 6
 -4 3 -11 4086.53 224.37 5
 -4 3 -11 3957.69 261.15 3
 -4 -3 11 4305.68 420.61 2
 -4 3 -12 3420.9 245.883 3
 4 3 12 3966.01 225.572 8
 4 -3 -12 4687.11 248.723 4
 4 3 12 3884.67 233.984 1
 -4 -3 12 4075.06 381.009 2
 -4 3 -12 3919.33 228.804 5
 -4 3 -12 3850.37 211.084 6
 -4 -3 12 4322.4 270.198 1
 4 -3 -12 3376.34 211.786 3
 4 3 12 4169.85 221.12 7
 4 3 13 1978.71 181.929 1
 -4 3 -13 2068.28 174.293 5
 4 3 14 1213.97 126.742 7
 4 -3 -14 1438.54 144.541 4
 -4 -3 14 1332.8 226.704 2
 -4 3 -14 1230.94 134.111 5
 4 3 14 1117.76 122.164 8
 -4 -3 14 1165.41 152.473 1
 -4 3 -14 1328.79 132.502 6
 4 -3 -14 1277.33 132.689 3
 4 3 15 1116.42 126.33 8
 -4 3 -15 988.664 117.507 6
 4 -3 -15 1001.45 123.314 4
 -4 3 -15 1172.36 137.636 5
 -4 -3 15 915.111 138.43 1
 -4 -3 15 1287.22 218.72 2
 4 -3 -15 1171.28 129.539 3
 4 3 15 873.685 117.166 7
 -4 4 15 508.012 80.7849 8
 4 -4 15 532.01 99.6579 1
 -4 -4 -15 556.506 102.343 3
 -4 -4 -14 2298.03 184.988 3
 -4 4 14 2465.12 163.87 8
 4 -4 14 2426.97 207.633 7
 4 4 -14 2517.56 180.997 6
 4 -4 13 1490.46 158.193 1
 -4 -4 -13 1828.1 171.661 3
 -4 -4 -13 1477.42 161.007 5
 -4 4 13 1277.24 120.608 8
 4 -4 13 1159.99 144.292 7
 4 4 -13 1425.79 138.153 6
 -4 -4 -12 10037.7 393.01 3
 4 -4 12 7327.57 323.672 7
 4 4 -12 9391.9 346.856 6
 -4 4 12 8281.82 298.916 8
 4 -4 12 8067.05 347.488 1
 -4 -4 -12 8525.06 363.63 5
 -4 -4 -11 1475.29 154.05 3
 4 -4 11 1298.47 141.664 7
 -4 -4 -11 1334.37 148.535 5
 4 -4 11 1143.21 133.538 1
 -4 4 11 1144.77 114.445 8
 4 -4 10 21008.7 520.494 7
 -4 -4 -10 19668.9 534.669 5
 4 4 -9 3133.49 199.765 6
 -4 -4 -9 3552.36 230.377 3
 -4 4 9 3509.94 188.521 8
 4 -4 9 3480.81 222.536 7
 4 -4 9 2918.48 221.684 1
 -4 -4 -9 3316.27 213.932 2
 4 -4 9 3247.98 189.686 4
 4 -4 8 31355.8 594.311 4
 -4 -4 -8 32916.1 704.27 3
 -4 -4 -8 31440.9 618.379 5
 -4 -4 -8 31147.7 658.662 2
 -4 4 8 31625.2 544.97 8
 4 -4 8 31036.6 634.148 1
 4 -4 7 12237.5 359.324 7
 -4 -4 -7 11674.7 372.283 5
 4 4 -6 13890.3 397.75 6
 -4 -4 -6 15297.6 407.103 5
 4 -4 6 14394.5 427.135 1
 -4 4 6 13326.7 348.545 8
 -4 -4 -6 14572 428.188 2
 4 -4 6 13315.6 372.224 4
 4 -4 6 12445.8 342.484 7
 -4 -4 -5 29839.9 621.894 3
 -4 4 5 26739.5 478.81 8
 4 4 -5 28779.2 516.976 6
 -4 -4 -5 27794.7 573.029 2
 4 -4 4 14115.1 344.847 4
 4 -4 4 13603.4 309.163 7
 -4 -4 -4 11685.2 302.41 5
 -4 -4 -4 11860.9 382.368 2
 -4 4 3 41014.4 560.684 8
 -4 -4 -3 46486.8 777.208 3
 -4 -4 -3 51178.9 777.181 2
 4 -4 3 47597.6 463.661 1
 -4 -4 -3 38292.7 489.519 5
 4 4 -3 47571.3 631.533 6
 4 4 -3 45147 548.561 4
 4 -4 3 38574.5 485.288 7
 -4 4 2 41170.9 807.091 2
 -4 -4 -2 51547.7 539.649 5
 4 -4 2 55680 456.884 1
 4 -4 2 57158.8 524.851 7
 -4 -4 -2 61472.3 873.76 3
 4 4 -2 50288.8 616.764 6
 4 4 -2 62450.3 599.981 4
 -4 4 2 50706.5 608.436 8
 4 -4 1 87569.8 884.151 4
 -4 -4 -1 105882 1121.98 3
 -4 4 1 99026 902.721 5
 4 -4 1 119097 640.396 1
 4 4 -1 106213 889.648 6
 -4 -4 -1 103641 1175.63 2
 -4 4 1 102449 879.328 8
 4 4 -1 94411.8 710.211 4
 4 -4 1 101673 611.947 7
 -4 4 1 98794.8 1109.51 2
 4 4 -1 104759 1003.28 7
 -4 4 0 34087.2 488.661 8
 -4 4 0 33883 519.782 5
 4 -4 0 33120.2 492.739 3
 4 -4 0 32357.5 282.299 7
 4 4 0 32253.4 447.617 6
 4 4 0 33710.9 559.005 7
 4 -4 0 31582.9 506.701 4
 4 4 0 33169.6 392.701 4
 -4 -4 0 33393.6 360.581 5
 -4 -4 0 33258 660.182 2
 4 -4 -1 121616 996.993 3
 4 -4 -1 85387.2 425.533 7
 -4 -4 1 123338 1274.27 1
 4 -4 -1 94220.5 881.364 4
 4 4 1 115084 654.482 4
 -4 4 -1 133216 1033.14 5
 -4 -4 1 100651 572.106 5
 -4 4 -1 125606 943.541 8
 -4 -4 1 116099 1184.87 8
 4 -4 -1 81885.7 841.146 6
 4 4 1 116409 1022.51 7
 -4 -4 1 102618 1233.59 2
 4 -4 -2 60495.3 737.776 4
 -4 4 -2 59407.5 633.112 8
 -4 -4 2 53075.6 397.614 5
 4 -4 -2 50203.9 639.851 6
 4 4 2 53255.2 545.854 6
 4 -4 -3 49128 636.458 3
 -4 4 -3 47667.7 618.067 5
 -4 -4 3 50786.3 938.759 2
 -4 -4 3 48584 770.764 8
 4 4 3 46780.3 643.287 7
 -4 -4 3 46768.7 834.454 1
 4 -4 -4 13962.4 357.236 3
 -4 4 -4 13739.3 350.202 5
 -4 -4 4 13638.9 518.429 2
 -4 -4 4 14925.4 423.663 8
 4 4 4 13630.7 365.451 7
 4 -4 -4 14060.8 373.687 6
 -4 -4 4 14400.8 437.286 1
 -4 4 -5 30431.3 541.751 5
 -4 -4 5 30352.3 838.058 2
 4 -4 -5 31052.8 531.624 4
 4 -4 -5 30627 562.217 3
 -4 -4 5 31306.5 651.836 1
 4 4 5 30365 538.598 7
 4 -4 -6 14709.4 385.973 3
 4 4 6 13826.2 365.386 7
 4 -4 -6 15567.3 393.772 6
 -4 -4 6 14519.9 596.505 2
 -4 4 -6 13582.2 361.332 5
 -4 -4 6 12649.6 434.845 1
 -4 -4 6 13494.5 421.518 8
 -4 4 -7 14517 512.977 3
 -4 -4 7 14446.5 446.326 8
 4 -4 -7 15183.8 408.893 4
 4 -4 -7 14826.8 407.73 6
 4 4 8 29797.4 563.697 7
 4 -4 -8 31838 602.869 4
 4 -4 -8 29339.4 570.606 3
 -4 4 -8 32745.1 746.439 3
 -4 -4 8 30903.9 689.197 1
 -4 4 -8 24543 529.257 5
 4 -4 -8 29940.6 582.779 6
 -4 -4 8 25437.7 692.332 8
 -4 -4 8 29609.8 934.18 2
 4 -4 -9 4534.64 234.932 3
 4 4 9 4695.01 217.813 7
 4 4 9 4643.2 165.23 1
 -4 4 -9 4463.91 274.538 3
 -4 4 -9 4362.46 217.699 5
 -4 -4 9 4678.41 388.107 2
 4 -4 -9 5132.06 249.633 4
 4 -4 -9 5058.13 248.345 6
 4 4 10 16067.2 439.415 8
 4 4 10 14349.7 402.695 1
 -4 4 -10 14848.3 485.761 3
 -4 4 -10 14420.4 408.573 5
 4 -4 -10 18236.6 494.389 6
 -4 -4 10 17430.5 752.719 2
 -4 -4 10 16142.1 513.785 8
 4 -4 -10 17053.3 462.199 4
 4 4 11 1528.24 130.602 7
 4 -4 -11 1727.94 154.312 4
 -4 4 -11 1488.85 135.476 5
 4 4 11 1476.23 141.228 8
 4 -4 -11 1479.34 142.058 3
 -4 4 -11 1647.17 144.567 6
 -4 4 -11 1255.14 159.196 3
 -4 -4 11 1450.47 237.973 2
 -4 -4 11 1728.37 176.09 1
 4 -4 -12 6542.5 290.403 3
 4 -4 -12 7994.19 327.541 4
 -4 -4 12 6716.53 342.025 1
 -4 -4 12 7753.49 522.864 2
 4 4 12 7040.59 299.287 8
 -4 4 -12 7229.52 289.422 6
 4 4 12 6512.06 273.712 7
 4 4 12 6166.81 304.663 1
 -4 4 -12 7567.7 315.213 5
 4 4 13 1467.86 142.056 8
 -4 -4 13 1554.46 171.363 1
 4 -4 -13 1421.39 141.246 3
 -4 4 -13 1521.01 139.907 6
 4 4 13 1398.16 132.243 7
 4 -4 -13 1496.55 147.816 4
 -4 4 -13 1447.25 148.45 5
 -4 -4 13 1334.4 228.236 2
 4 4 14 1671.15 152.493 8
 -4 -4 14 1682.56 184.084 1
 4 -4 -14 2210.03 170.874 3
 -4 4 -14 2403.15 171.879 6
 4 -4 -14 1822.81 165.63 4
 -4 -4 14 1923.64 271.251 2
 4 4 14 2032.03 162.769 7
 -4 4 -14 1787.68 161.76 5
 4 4 15 724.969 97.1534 7
 -4 -4 15 569.199 156.552 2
 4 -4 -15 612.19 101.916 4
 -4 -4 15 651.963 119.107 1
 -4 4 -15 641.12 106.135 5
 4 -4 -15 591.625 94.1681 3
 4 4 15 478.784 85.3791 8
 -4 -5 -15 324.75 82.9547 3
 4 -5 15 263.106 80.1311 1
 -4 5 15 328.787 68.1577 8
 4 5 -15 319.613 73.9348 6
 4 5 -14 4797.68 238.523 6
 4 -5 14 4407.58 259.895 1
 -4 5 14 4049.35 208.403 8
 -4 -5 -14 3638.19 236.22 5
 -4 -5 -14 4831.17 265.279 3
 4 5 -13 718.766 99.8648 6
 4 -5 13 663.266 130.767 1
 -4 5 13 762.182 95.4686 8
 -4 -5 -13 683.225 118.106 5
 -4 -5 -13 662.871 111.398 3
 -4 -5 -12 7840.39 356.404 5
 -4 5 12 7040.14 276.737 8
 4 5 -12 8095.22 333.496 6
 4 -5 12 7438.16 339.11 1
 4 -5 12 6039.08 338.66 7
 -4 -5 -12 8888.3 365.381 3
 -4 -5 -11 2247.09 194.749 5
 4 5 -11 1622.98 148.072 6
 -4 5 11 1658.86 136.34 8
 4 -5 11 2308.69 170.981 4
 4 -5 11 1928.47 173.776 1
 4 -5 11 1874.47 183.281 7
 -4 -5 -11 2319.49 191.32 3
 -4 -5 -10 5207.5 279.497 3
 -4 -5 -10 3585.4 250.814 2
 4 -5 10 4837.76 266.889 7
 4 -5 10 3656.77 241.485 1
 4 5 -10 5850.05 267.796 6
 4 -5 10 4734.63 243.107 4
 -4 5 10 5300.42 234.903 8
 -4 5 9 10443.6 323.869 8
 4 5 -9 9679.86 339.982 6
 -4 -5 -9 11170.8 404.708 5
 4 -5 9 12864.3 370.519 4
 4 -5 9 11952 428.654 7
 4 -5 9 9408 364.946 1
 -4 -5 -9 9241.46 358.564 2
 -4 -5 -9 11319.5 404.413 3
 4 -5 8 13293.2 391.554 4
 -4 5 8 13831.2 373.94 8
 4 -5 8 18478.3 537.642 1
 -4 -5 -8 16514.7 480.021 2
 -4 -5 -8 14582.1 452.793 3
 4 5 -8 13715.4 396.933 6
 4 -5 8 17811.5 481.332 7
 -4 -5 -8 15058.5 462.324 5
 -4 -5 -7 25344.6 588.306 5
 -4 -5 -7 26391.5 587.636 2
 4 -5 7 22679.3 510.262 4
 4 5 -7 27372.4 550.56 6
 -4 5 7 26109.9 503.322 8
 -4 -5 -7 28817.2 637.469 3
 4 -5 7 21814.5 515.959 7
 4 -5 6 20912.8 511.811 1
 -4 5 6 21743.9 442.933 8
 -4 -5 -6 22151.6 566.861 3
 4 5 -5 37373 621.341 6
 -4 5 5 35973.4 562.28 8
 -4 -5 -5 37165.1 687.623 2
 4 -5 5 38061.9 634.376 4
 -4 -5 -5 35726.8 701.785 3
 -4 -5 -4 36207.9 671.38 3
 -4 5 4 38616.5 568.457 8
 4 -5 4 37233.4 638.122 1
 -4 -5 -4 35693.4 579.454 5
 -4 -5 -4 42411.7 755.842 2
 4 5 -4 43272.3 622.263 6
 4 -5 4 39374.9 601.724 4
 4 -5 3 40422.8 648.145 1
 -4 -5 -3 31520.3 503.876 5
 4 5 -3 38182.2 521.318 4
 -4 -5 -3 34070.8 651.965 2
 4 -5 3 34963.4 576.145 4
 -4 -5 -3 33191 631.856 3
 4 -5 2 96075.3 919.31 4
 4 5 -2 94206 900.685 6
 -4 5 2 96264.2 1236.49 2
 4 -5 2 99627.5 942.427 1
 4 5 -2 83182.8 721.455 4
 -4 -5 -2 113634 1120.39 3
 4 -5 2 91072 714.992 7
 -4 -5 -2 89599 1106.03 2
 -4 5 2 96380.3 854.717 8
 -4 -5 -2 103152 815.808 5
 4 -5 1 76101.8 847.53 4
 -4 5 1 69635.4 779.788 5
 -4 -5 -1 69334 846.839 3
 -4 -5 -1 66757.8 931.164 2
 4 5 -1 67740.3 703.913 6
 -4 5 1 70559.9 725.919 8
 -4 -5 -1 56509.9 528.026 5
 4 5 -1 64246 559.039 4
 -4 5 1 60523.8 867.16 2
 4 5 -1 67277.7 838.662 7
 4 -5 0 79552.2 820.525 4
 4 -5 0 60280.8 531.391 1
 4 5 0 68822.5 665.304 6
 4 5 0 76207.5 885.255 7
 4 5 0 86960.2 598.929 4
 -4 5 0 77421.5 759.29 8
 -4 5 0 70228.8 784.879 5
 -4 -5 0 71268.2 1012.24 2
 4 -5 -1 67872.5 794.621 3
 -4 -5 1 64571.7 988.341 2
 4 -5 -1 72483.4 435.618 1
 -4 5 -1 80428 829.88 5
 -4 -5 1 98366.6 908.659 3
 -4 -5 1 71320.2 1005.59 1
 4 -5 -1 49188.1 672.029 4
 -4 5 -1 69755.2 688.441 8
 4 5 1 72141.3 845.844 7
 -4 5 -2 84375.8 750.363 8
 -4 -5 2 87086.3 1061.83 8
 -4 -5 2 86035.6 1137.29 1
 -4 -5 2 85502.7 1215.59 2
 4 -5 -2 84935.8 855.713 3
 -4 -5 2 80127.4 785.948 3
 4 5 2 86785 698.593 6
 4 -5 -2 78168.7 902.313 4
 -4 5 -2 85599.2 864.31 5
 4 -5 -2 82501.5 875.838 6
 4 -5 -3 38561.3 585.342 3
 4 5 3 38770.9 605.435 7
 4 -5 -3 38483.3 577.759 6
 -4 -5 3 38032.3 759.075 1
 4 -5 -4 36159.5 588.637 6
 -4 -5 4 35607 832.395 2
 4 5 4 32761.2 576.102 7
 4 -5 -4 31167 567.098 3
 -4 -5 4 35396 715.679 1
 -4 -5 5 35962.8 719.776 8
 -4 -5 5 50854.7 861.948 1
 -4 5 -5 42227.6 646.526 5
 4 5 5 39347.3 624.698 7
 4 -5 -5 38913.2 638.426 3
 -4 -5 5 35808.2 895.437 2
 4 -5 -5 25057.2 548.785 4
 4 -5 -6 18971.6 454.532 4
 -4 5 -6 18092.3 425.659 5
 -4 -5 6 17378.8 646.688 2
 -4 -5 6 17535.6 507.3 8
 4 -5 -7 28989.5 567.089 3
 -4 -5 7 28681.9 681.977 1
 -4 -5 7 26179.2 624.686 8
 -4 5 -7 27374.6 543.594 5
 4 5 7 27470.8 517.113 7
 -4 5 -8 12774.9 382.787 5
 -4 -5 8 12919.1 469.426 1
 -4 -5 8 10753.4 423.558 8
 -4 -5 8 15554.8 675.329 2
 4 -5 -8 13313.2 392.937 3
 4 5 8 14050.4 395.326 7
 -4 5 -8 12890.6 496.517 3
 4 -5 -8 13750.4 405.483 4
 4 5 9 10404.7 249.721 1
 -4 5 -9 10717.6 349.185 5
 -4 5 -9 11827.9 453.597 3
 4 -5 -9 10814.9 361.771 3
 4 5 9 11307.8 337.927 7
 -4 -5 9 11571.2 445.966 1
 -4 -5 9 11429.5 588.413 2
 4 5 10 5405.52 241.601 7
 4 -5 -10 6047.14 292.718 4
 -4 -5 10 5700.2 315.409 1
 4 5 10 5492.01 261.579 8
 4 -5 -10 5495.87 261.779 3
 -4 5 -10 5172.76 248.237 6
 -4 -5 10 5416.64 419.766 2
 4 5 11 2422.43 179.315 8
 4 -5 -11 2336.7 177.823 3
 4 -5 -11 3113.99 213.057 4
 -4 5 -11 2643.86 181.439 6
 -4 5 -11 2078.77 160.335 5
 -4 -5 11 2502.96 298.594 2
 4 5 11 2500.49 168.425 7
 -4 -5 11 2576.7 217.45 1
 -4 5 -12 7172.11 308.174 5
 -4 -5 12 8097.9 525.932 2
 4 5 13 833.717 110.756 8
 -4 -5 13 1009.7 198.903 2
 4 5 13 902.305 107.886 7
 -4 5 -13 960.238 114.129 6
 -4 -5 13 907.11 137.387 1
 4 -5 -13 927.543 119.165 3
 4 -5 -13 830.983 119.771 4
 -4 5 -13 984.222 123.837 5
 -4 -5 14 4197.47 278.959 1
 4 -5 -14 4812.71 273.365 4
 4 -5 -14 4458.44 236.337 3
 -4 -5 14 4223.61 390.276 2
 -4 5 -14 5010.66 244.189 6
 4 5 15 272.758 66.0388 8
 4 -5 -15 94.0188 62.8019 3
 -4 5 -15 227.565 72.2031 5
 4 5 15 219.484 60.3436 7
 -4 -5 15 217.998 81.6138 1
 -4 5 -15 197.579 64.9883 6
 4 6 -14 1159.32 122.251 6
 -4 -6 -14 1238.72 140.92 3
 4 -6 14 1243.34 145.578 1
 -4 6 14 824.247 102.665 8
 4 6 -13 3969.37 221.245 6
 -4 -6 -13 3605.95 240.562 3
 4 -6 13 3500.25 238.004 1
 -4 6 13 3496.54 195.885 8
 -4 -6 -12 5245.56 286.5 5
 4 6 -12 4921.56 264.875 6
 4 -6 12 4458.84 273.127 1
 -4 6 12 4629.56 223.069 8
 -4 6 11 4722.5 223.236 8
 4 6 -11 3997.75 232.742 6
 -4 -6 -11 4832.13 266.345 2
 -4 -6 -11 4371.07 277.663 5
 -4 -6 -11 5244.11 282.914 3
 4 -6 11 4326.12 266.174 1
 -4 6 10 13467.1 378.966 8
 4 -6 10 15209.7 530.261 7
 4 6 -10 15135.3 432.72 6
 -4 -6 -10 12092.7 408.764 2
 4 -6 10 14356.9 412.124 4
 -4 -6 -10 13532.5 485.77 5
 -4 -6 -10 14468.2 472.88 3
 4 -6 10 13818.1 464.73 1
 -4 -6 -9 4080.8 243.632 2
 -4 6 9 4417.46 215.966 8
 4 -6 9 4352.51 220.163 4
 4 -6 9 3776.98 258.235 7
 -4 -6 -9 4562.69 273.055 5
 -4 -6 -8 27160.4 638.256 5
 -4 6 8 25258.6 511.598 8
 4 -6 8 26496.3 613.558 1
 4 -6 8 24945.5 553.307 4
 4 -6 8 25592.5 626.907 7
 -4 -6 -7 5565.08 274.895 2
 4 -6 7 4536.53 243.979 4
 -4 -6 -7 5224.02 270.861 5
 -4 6 7 5364.26 233.017 8
 4 -6 7 6351.03 294.988 1
 4 -6 7 3791.34 235.067 7
 4 6 -7 4995.66 243.744 6
 -4 -6 -7 5804.09 285.691 3
 -4 6 6 31468.9 553.95 8
 -4 -6 -6 33017.4 674.287 2
 4 -6 6 33623.5 612.207 4
 4 -6 6 32201.6 628.662 7
 4 -6 5 9691.25 324.601 7
 -4 -6 -5 9260.37 328.677 5
 4 -6 5 8327.42 327.913 1
 -4 6 5 9619.13 295.183 8
 4 6 -5 10632.2 355.748 6
 -4 -6 -4 28164.4 620.794 2
 4 -6 4 18956.7 453.304 7
 -4 6 4 24300.1 465.228 8
 -4 -6 -4 22525.3 473.875 5
 4 -6 4 26871.5 518.544 4
 4 6 -4 23802.8 479.488 6
 4 -6 4 23252.4 519.943 1
 -4 -6 -4 24302.9 570.138 3
 -4 -6 -3 25428.2 596.655 2
 4 -6 3 24430.7 479.989 4
 -4 6 3 22575.5 437.665 8
 4 -6 3 25328.5 516.838 1
 -4 -6 -3 21863 425.595 5
 4 6 -2 3948.41 158.168 4
 -4 -6 -2 4423.73 232.571 3
 -4 6 2 3557.09 170.546 8
 4 -6 2 3832.06 193.509 1
 4 -6 2 3808.55 205.39 4
 -4 -6 -2 4523.13 256.752 2
 -4 6 1 33931.7 504.373 8
 -4 -6 -1 37396.6 609.148 3
 4 6 -1 37486.3 653.435 7
 4 -6 1 35301.3 582.799 4
 -4 -6 -1 40939.1 768.3 2
 4 -6 1 32683.1 513.571 1
 -4 6 1 29763.6 541.731 5
 4 6 -1 32085.6 493.818 6
 4 -6 0 5294.87 234.198 4
 -4 6 0 4089.85 178.674 8
 4 -6 0 3419.27 174.735 3
 4 6 0 4037.91 216.985 7
 -4 -6 0 4472.86 262.636 2
 -4 6 0 2923.28 168.899 5
 4 -6 0 3647.35 153.684 1
 4 6 0 3885.8 161.932 6
 -4 6 -1 33924.6 564.346 5
 -4 -6 1 35436.3 736.769 1
 4 -6 -1 35419.2 583.091 3
 4 6 1 35079.7 616.221 7
 4 -6 -2 4479.94 208.091 3
 4 -6 -2 4250.68 205.225 4
 -4 -6 2 4972.27 286.83 1
 -4 -6 3 23665.8 635.018 1
 -4 6 -3 24373.1 469.816 5
 -4 -6 3 24536.1 686.14 2
 4 -6 -3 23856.2 478.11 3
 4 -6 -4 27437.8 566.336 4
 -4 -6 4 28393.2 679.517 1
 -4 -6 4 30701.8 712.911 8
 -4 6 -4 28349.8 530.435 5
 -4 -6 4 25283.5 726.661 2
 4 6 4 27471.8 541.289 7
 4 -6 -4 28298.1 537.307 3
 4 -6 -5 11183.6 364.022 4
 -4 -6 5 10575 395.236 8
 -4 6 -5 10044 326.977 5
 -4 -6 5 9964.59 465.401 2
 4 6 5 10708.5 333.323 7
 -4 -6 6 27681.6 669.187 8
 -4 -6 6 36478.4 779.472 1
 4 -6 -6 27284.2 568.938 6
 -4 -6 6 31940.2 891.116 2
 4 -6 -6 38472.3 667.192 3
 4 -6 -6 43597.4 744.154 4
 4 6 6 35717.7 627.904 7
 -4 6 -7 4429.5 220.287 5
 -4 -6 7 4080.4 276.586 1
 4 -6 -7 4611.01 232.595 3
 4 6 7 4394.48 212.847 7
 -4 6 -7 3799.53 280.107 3
 -4 -6 7 4249.2 338.27 2
 -4 6 -8 20311.1 504.653 5
 -4 -6 8 22325.5 804.367 2
 4 6 8 30879.4 609.105 7
 -4 -6 8 26248.1 678.766 1
 4 -6 -8 27102.1 593.032 4
 4 -6 -8 28071.3 573.461 3
 4 6 9 3735.8 203.471 7
 4 6 9 3525.88 152.114 1
 4 -6 -9 4535.95 246.388 4
 -4 6 -9 3728.57 210.693 5
 -4 -6 9 3710.75 264.761 1
 4 -6 -9 3747.01 225.873 3
 -4 -6 9 3624.49 336.858 2
 4 -6 -10 13840.7 417.818 3
 -4 6 -10 13154.6 398.702 5
 -4 -6 10 13160.7 488.38 1
 -4 6 -10 13820.8 409.241 6
 4 6 10 13931 389.601 7
 4 6 10 14697.6 428.311 8
 4 6 11 4249.93 218.498 7
 -4 -6 11 3595.05 373.8 2
 4 -6 -11 4282.56 235.795 3
 -4 6 -11 3488.81 209.623 5
 -4 6 -11 4132.47 227.572 6
 4 6 11 4130.24 232.197 8
 -4 -6 11 4280.98 282.31 1
 4 -6 -11 5016.49 270.945 4
 4 6 12 4976.55 241.826 7
 -4 -6 12 4298.65 400.016 2
 4 6 12 4932.67 252.594 8
 4 -6 -12 4964.58 260.563 3
 -4 -6 12 4483.63 291.37 1
 4 -6 -12 4793.39 271.898 4
 -4 6 -12 4678.92 240.286 6
 -4 6 -13 3374.78 204.439 6
 -4 6 -13 3100.89 216.445 5
 4 -6 -13 3108.81 200.163 3
 4 6 13 2823.79 188.555 7
 4 6 13 3447.79 213.233 8
 4 6 14 968.186 117.77 8
 4 6 14 1583.8 150.383 7
 4 -6 -14 1438.39 138.627 3
 -4 -6 14 1069.76 145.809 1
 -4 6 -14 1106.32 124.988 6
 -4 -7 -14 1482.68 153.361 3
 -4 7 14 1255.72 118.529 8
 4 -7 14 1239.61 148.4 1
 4 7 -14 1756.72 148.108 6
 -4 7 13 3315.67 189.117 8
 4 -7 13 2874.03 216.866 1
 4 7 -13 2951.28 192.015 6
 -4 -7 -12 1977.57 178.988 3
 -4 7 12 1753.58 139.954 8
 4 7 -12 1890.44 168.141 6
 -4 -7 -11 6308.33 309.55 3
 4 -7 11 6672.64 327.289 1
 -4 7 11 6245.19 259.023 8
 -4 -7 -10 890.381 128.313 5
 -4 -7 -10 913.063 119.742 2
 4 -7 10 1396.97 177.805 1
 -4 7 10 1259.02 120.419 8
 4 -7 10 1294.11 132.235 4
 4 -7 9 12088 441.699 1
 4 7 -9 11495.8 378.413 6
 4 -7 9 11177.4 358.912 4
 -4 -7 -9 12207.4 416.662 2
 -4 7 9 11858 355.652 8
 4 -7 8 2203.64 166.1 4
 -4 -7 -8 1801.49 176.883 5
 -4 -7 -8 1893.2 173.152 2
 4 -7 8 1677.47 163.951 1
 -4 -7 -8 2008.96 180.049 3
 4 7 -7 22140.9 524.344 6
 4 -7 7 23497.7 535.175 4
 -4 -7 -7 23321.9 561.454 2
 4 -7 7 21204.9 565.806 1
 -4 7 7 21861 480.828 8
 4 -7 6 1216.92 127.049 4
 -4 -7 -6 732.766 110.932 2
 -4 -7 -6 722.912 108.814 5
 -4 7 6 869.269 98.9681 8
 4 7 -6 1156.09 125.24 6
 -4 -7 -6 958.748 120.685 3
 4 -7 6 1056.02 131.422 1
 4 -7 5 30164.5 593.61 4
 -4 -7 -5 31709.6 669.661 2
 -4 -7 -4 1706.33 162.288 2
 -4 -7 -4 1852.23 157.919 3
 4 7 -4 1736.4 140.826 6
 -4 7 4 1756.32 131.806 8
 4 -7 3 35963.9 609.123 4
 -4 7 3 33542.7 553.046 8
 -4 -7 -3 36928.6 659.99 3
 -4 -7 -3 32468.8 693.941 2
 4 -7 2 1207.82 115.525 1
 -4 -7 -2 1123.72 133.476 2
 -4 -7 -2 905.749 106.953 3
 4 -7 2 1164.08 117.363 4
 4 -7 1 45944.3 687.121 4
 4 7 -1 46770.9 763.918 7
 4 7 -1 43398.9 611.996 6
 -4 7 1 41654.3 587.902 8
 -4 -7 -1 41590.7 623.99 3
 -4 7 1 43243.7 683.402 5
 -4 -7 -1 48431.6 865.422 2
 -4 -7 0 57.0869 48.0558 2
 4 -7 0 59.9713 45.4582 4
 -4 7 0 34.2613 41.1494 5
 4 -7 0 57.188 42.2535 3
 4 7 0 82.7225 46.4683 7
 4 7 1 42390 735.951 7
 4 -7 -1 43197.2 657.239 3
 -4 7 -1 39678.6 636.931 5
 -4 -7 1 37745.7 812.446 2
 -4 -7 1 40169.3 848.474 1
 4 7 2 1331.47 130.993 7
 -4 -7 2 989.522 136.406 2
 4 -7 -2 1304.95 121.155 3
 4 -7 -2 1194.13 120.186 4
 -4 7 -2 1221.69 114.032 5
 -4 -7 3 29143.9 759.296 2
 4 7 3 34099.7 604.32 7
 -4 7 -3 34281.7 589.797 5
 4 -7 -3 30046.5 556.688 3
 4 -7 -3 34472.4 615.866 4
 -4 -7 3 37606.6 805.841 1
 -4 -7 4 2279.65 219.715 2
 -4 7 -4 2138.86 153.862 5
 4 -7 -4 1929.91 163.785 4
 4 -7 -4 2058.3 155.64 3
 -4 -7 4 1989.44 197.13 1
 4 7 5 30970.5 584.664 7
 4 -7 -5 29771 585.053 3
 4 -7 -5 28568.9 604.904 4
 -4 -7 5 31899.2 750.104 1
 -4 -7 6 1158.23 176.371 2
 -4 7 -6 1337.83 126.642 5
 4 7 6 1019.54 113.216 7
 -4 -7 6 1052.56 145.887 1
 4 -7 -6 1139.69 127.875 3
 4 7 7 22787.9 498.212 7
 -4 7 -7 23809.6 522.928 5
 -4 -7 7 22464 762.033 2
 4 -7 -7 23490.2 562.637 4
 -4 -7 7 23806.6 645.852 1
 4 -7 -8 2114.96 168.759 3
 4 7 8 2219.91 170.429 7
 -4 -7 8 2087.76 248.568 2
 4 -7 -8 2347.46 191.858 4
 -4 -7 8 2280.05 214.251 1
 4 -7 -9 13729.2 475.752 4
 -4 -7 9 12130.9 612.193 2
 4 -7 -9 14037.6 417.915 3
 -4 7 -9 12701.7 388.456 6
 -4 -7 9 11592.2 478.404 1
 4 7 9 12243.3 372.419 7
 4 -7 -10 934.198 142.36 4
 -4 -7 10 1159.18 202.929 2
 4 -7 -10 1343.75 136.538 3
 4 7 10 1280.34 124.959 7
 -4 7 -10 1211.49 132.498 6
 -4 7 -10 1236.43 128.26 5
 4 7 10 1190.29 130.385 8
 -4 -7 10 1213.54 160.842 1
 -4 -7 11 5081.57 416.506 2
 -4 7 -11 7048.6 292.963 6
 -4 7 -11 5361.8 264.558 5
 -4 -7 11 7097.64 364.81 1
 4 7 11 6881.23 298.422 8
 4 -7 -11 6995.89 297.669 3
 4 7 11 6678.4 280.794 7
 -4 7 -12 1914.41 163.509 6
 -4 7 -12 2012.57 171.992 5
 -4 -7 12 1540.82 174.248 1
 4 -7 -12 2080.07 165.809 3
 4 7 12 1961.84 156.445 7
 4 7 12 1915.69 159.197 8
 4 -7 -13 3356.17 212.438 3
 -4 7 -13 3345.94 202.034 6
 -4 -7 13 3217.73 242.8 1
 4 7 13 3449.47 212.113 8
 -4 7 -14 1199.46 132.894 6
 -4 -7 14 1512.75 169.094 1
 4 8 -13 4166.53 225.339 6
 4 -8 13 5086.98 303.813 1
 4 -8 12 3104.09 234.588 1
 4 8 -11 5915.03 294.983 6
 4 -8 11 5895.52 310.791 1
 -4 8 11 5234.97 239.008 8
 4 -8 10 5027.42 254.523 4
 -4 -8 -10 5086 265.547 2
 -4 -8 -9 5950.8 313.3 2
 4 -8 9 5473.16 258.904 4
 4 8 -9 6111.86 290.105 6
 4 -8 9 7020.47 343.747 1
 -4 8 9 6598.09 270.429 8
 -4 -8 -9 7870.55 349.51 3
 -4 -8 -8 13708.2 460.992 3
 4 -8 8 11012.4 360.759 4
 -4 8 8 11902.5 361.624 8
 4 -8 8 12200 452.975 1
 -4 -8 -8 13466.7 454.183 2
 4 8 -8 10613.6 386.111 6
 -4 -8 -7 6731.85 322.054 2
 4 -8 7 3553.35 270.21 1
 -4 8 7 6395.36 265.146 8
 -4 -8 -7 7942.41 346.708 3
 4 8 -7 4917.37 262.561 6
 -4 -8 -6 17965.1 513.563 2
 4 -8 6 17072.3 533.646 1
 -4 8 6 15928.4 409.737 8
 -4 -8 -6 17334.3 517.183 3
 4 -8 5 11460.8 372.15 4
 -4 -8 -5 10574.3 396.47 2
 -4 8 5 10454.8 327.378 8
 4 8 -5 11702.2 378.875 6
 -4 -8 -4 9583.29 377.367 2
 4 -8 4 8781.24 350.91 1
 -4 8 4 8995.21 302.342 8
 4 8 -4 8585.52 320.081 6
 -4 -8 -4 9119.39 362.52 3
 -4 -8 -3 516.213 90.4427 3
 4 8 -3 613.864 101.062 7
 -4 -8 -3 562.971 102.776 2
 4 -8 3 576.638 90.4416 4
 4 8 -3 450.021 77.8143 6
 4 -8 3 327.828 73.9583 1
 -4 8 3 442.698 73.2844 8
 4 8 -2 13603.6 432.518 7
 4 8 -2 14317.4 381.4 6
 -4 -8 -2 12046.1 452.12 2
 -4 8 2 12125.4 342.57 8
 4 -8 1 123.091 52.5062 4
 -4 8 1 162.148 58.2045 5
 -4 -8 0 9763.79 407.009 2
 4 -8 0 9833.57 330.256 4
 4 8 0 10028 359.457 7
 4 -8 -1 224.124 60.9359 3
 4 -8 -1 182.212 59.7303 4
 4 8 1 200.276 62.5305 7
 -4 8 -1 266.206 73.227 5
 -4 -8 1 178.491 77.6831 1
 -4 -8 1 179.799 69.1332 2
 -4 8 -2 14974.7 403.804 5
 -4 -8 2 12595.7 497.769 2
 -4 -8 3 888.371 136.857 2
 4 -8 -3 948.456 110.13 3
 -4 8 -3 690.864 94.501 5
 -4 -8 3 825.953 143.307 1
 4 8 4 10345.4 361.087 7
 4 -8 -4 9751.06 338.829 3
 -4 -8 5 11937.1 527.44 2
 4 8 5 11715.5 373.555 7
 4 -8 -5 12197.5 386.592 3
 -4 -8 5 11854.2 486.23 1
 -4 -8 6 15889.1 644.953 2
 4 8 6 17916.5 471.923 7
 -4 8 -6 22792.3 514.568 5
 4 -8 -6 20585.5 503.859 3
 -4 -8 6 16780.2 567.893 1
 4 -8 -6 20703.2 549.206 4
 4 -8 -7 7315.26 309.62 3
 -4 -8 7 5488.55 411.674 2
 -4 8 -7 5211.81 254.949 5
 -4 -8 7 7863.14 386.077 1
 4 8 7 6366.03 269.782 7
 4 -8 -7 6628.18 315.118 4
 -4 -8 8 12343.3 595.034 2
 4 -8 -8 12794.2 411.154 3
 -4 8 -8 12892.5 402.808 6
 4 -8 -9 6871.84 309.171 3
 -4 8 -9 5803.24 271.904 5
 -4 8 -9 7341.17 310.056 6
 4 8 9 6046.84 286.587 8
 -4 -8 9 6662.09 355.413 1
 -4 -8 9 5331.68 417.485 2
 4 8 9 6092.21 265.545 7
 -4 8 -10 5321.91 270.474 6
 -4 -8 10 6005.44 342.137 1
 4 8 10 5995.82 267.361 7
 4 8 10 6037.72 286.035 8
 4 -8 -10 5151.27 264.605 3
 -4 8 -11 6353.89 282.836 6
 -4 -8 11 5583.73 328.021 1
 4 8 11 4619.99 238.756 7
 4 -8 -11 4663.2 253.131 3
 4 8 11 5707.56 276.508 8
 -4 8 -13 2623.27 178.356 6
 -4 -8 13 2878.49 233.977 1
 4 8 13 3318.56 208.974 8
 4 -8 -13 2812.33 193.406 3
 -4 9 12 2284.6 160.555 8
 -4 -9 -12 2122.17 187.342 3
 4 -9 12 1848.14 186.447 1
 4 9 -12 2185 173.565 6
 -4 9 11 1995.15 154.282 8
 4 9 -11 2549.23 188.707 6
 -4 -9 -11 2426.8 199.89 3
 4 -9 10 3771.75 263.663 1
 -4 9 10 3732.41 205.23 8
 4 9 -10 4329.17 257.852 6
 -4 -9 -10 3584.16 229.211 2
 -4 -9 -10 4062.85 255.953 3
 4 -9 10 3577.47 217.512 4
 -4 -9 -9 2864.28 207.954 2
 4 -9 9 2391.75 216.704 1
 -4 -9 -9 2536.95 213.979 3
 4 9 -9 3082.2 222.474 6
 4 9 -8 6120.11 311.569 6
 4 -9 8 7972.93 310.539 4
 -4 -9 -8 7023.69 333.865 3
 -4 -9 -8 7707.09 342.85 2
 -4 9 8 5954.27 263.411 8
 4 -9 8 5660.35 320.863 1
 -4 -9 -7 5111.74 289.323 3
 -4 -9 -7 4519.54 272.306 2
 -4 9 7 5270.19 244.303 8
 4 9 -7 5143.96 280.341 6
 4 9 -6 10493.7 381.422 6
 -4 -9 -6 10014.8 402.34 3
 4 -9 6 10171.2 416.169 1
 -4 9 6 10213.4 337.076 8
 -4 -9 -6 9791.96 385.469 2
 4 9 -5 4826.32 250.87 6
 -4 -9 -5 4233.23 261.975 2
 -4 -9 -5 4075.35 251.072 3
 -4 9 5 4150.9 217.923 8
 4 -9 5 3465.54 234.747 1
 -4 9 4 11416.9 355.737 8
 -4 -9 -4 11663.9 429.691 2
 4 9 -4 11981.6 398.048 6
 4 -9 3 7341 316.869 4
 -4 -9 -3 8367.27 366.861 2
 -4 9 3 7890.61 322.764 5
 4 9 -3 8570.02 369.258 7
 4 -9 2 12406.6 393.35 4
 -4 9 2 13324.4 413.713 5
 4 -9 1 9211.96 328.146 4
 -4 9 1 8600.93 328.718 5
 4 9 -1 8990.73 370.381 7
 -4 9 0 9875.58 349.791 5
 -4 -9 0 12899.3 469.211 2
 4 9 0 13096.3 428.108 7
 4 -9 0 9655.35 350.715 4
 -4 -9 1 7961.67 380.153 2
 -4 -9 1 8214.89 421.708 1
 -4 9 -1 8232.12 313.591 5
 4 -9 -1 8793.26 315.842 3
 4 9 1 8569.09 346.143 7
 4 9 2 16849.4 480.577 7
 -4 -9 2 17884.3 577.1 2
 4 -9 -2 17860.9 469.96 3
 4 9 3 6208.49 293.904 7
 4 -9 -3 6381.22 274.137 3
 -4 9 -3 5557.56 269.033 5
 -4 -9 3 6127.84 365.95 2
 -4 9 -4 14545.3 420.617 5
 4 -9 -4 14790.9 415.794 3
 -4 -9 4 15885.1 572.965 1
 4 -9 -4 14146.5 433.763 4
 -4 -9 4 15373.8 580.101 2
 -4 9 -5 3615.11 216.289 5
 4 9 5 3289.65 210.756 7
 -4 -9 5 3700.36 286.086 1
 -4 -9 5 3899.12 302.319 2
 4 -9 -5 4080.36 228.884 3
 4 9 6 11346.8 376.472 7
 -4 -9 6 10076.2 477.858 1
 -4 -9 6 10239.1 505.779 2
 -4 9 -6 13140.9 408.235 5
 4 -9 -6 12051.7 392.066 3
 -4 -9 7 3803.26 283.05 1
 4 9 8 7153.29 314.418 8
 -4 -9 8 6550.99 365.893 1
 4 -9 -8 7467.68 315.324 3
 -4 9 -8 6979.78 306.477 6
 4 9 8 6994.2 310.36 7
 4 9 9 2548.52 189.692 8
 4 9 9 2432.43 176.771 7
 4 -9 -9 2610.61 189.671 3
 -4 -9 10 4985.88 313.916 1
 4 9 10 4972.43 258.469 8
 4 -9 -10 4503.25 252.757 3
 -4 9 -11 2122.65 173.961 6
 4 9 12 2288.21 174.942 8
 -4 -9 12 2400.58 217.418 1
 4 -9 -12 2296.21 176.959 3
 -4 9 -12 2274.07 170.396 6
 4 -10 12 2550.69 223.74 1
 4 -10 11 1810.62 191.189 1
 -4 10 11 1604.36 139.027 8
 4 10 -11 1605.69 155.158 6
 -4 -10 -11 1560.99 164.206 3
 -4 -10 -10 6816.93 334.35 3
 4 -10 10 6073.5 341.722 1
 -4 -10 -10 5247.3 290.139 2
 4 10 -10 6133.49 290.21 6
 -4 10 10 5218.18 249 8
 -4 -10 -9 5956.83 317.229 3
 4 -10 9 6179.07 285.028 4
 4 10 -9 5254.73 273.865 6
 4 10 -8 8471.98 348.554 6
 4 -10 8 7228.48 309.808 4
 -4 -10 -8 7693.13 357.313 3
 4 -10 8 6861.06 368.745 1
 -4 10 8 5388.11 256.323 8
 -4 -10 -8 6244.46 315.982 2
 -4 -10 -7 8371.39 368.175 2
 -4 10 7 7373.22 301.091 8
 4 -10 7 10654.3 364.016 4
 4 10 -7 10383.4 386.036 6
 -4 -10 -7 9861.25 402.995 3
 -4 -10 -6 2178.15 195.585 2
 -4 10 6 2345.74 172.38 8
 4 -10 6 2419.37 182.983 4
 4 -10 5 8101.18 346.406 4
 -4 -10 -5 8376.42 366.537 2
 -4 -10 -4 1778.35 173.27 2
 -4 -10 -3 8238.17 369.1 2
 4 10 -3 7636.14 371.395 7
 -4 -10 -2 2335.3 201.974 2
 4 10 -2 2355.16 200.117 7
 -4 10 2 2107.17 173.656 5
 4 -10 2 2553.68 187.038 4
 -4 -10 -1 3324.76 250.288 2
 4 10 -1 3656.4 243.024 7
 -4 10 1 3677.97 249.346 5
 4 -10 1 3135.38 200.761 4
 4 -10 0 440.184 82.0426 4
 -4 10 0 261.334 82.1945 5
 -4 -10 0 423.846 96.3277 2
 4 10 0 374.776 89.6026 7
 -4 -10 1 3091.52 246.529 2
 4 -10 -1 3375.21 220.285 4
 4 10 1 3350.71 228.981 7
 -4 10 -1 3248.68 204.253 5
 4 -10 -1 3866.08 217.83 3
 4 -10 -2 1696.3 152.601 3
 4 -10 -2 1739.06 159.164 4
 -4 -10 2 1465.24 179.235 2
 -4 -10 2 1590.68 199.25 1
 -4 10 -2 2066.8 162.092 5
 4 10 2 1787.52 161.14 7
 4 10 3 8366.45 345.175 7
 4 -10 -3 7562.78 316.552 3
 -4 -10 3 7941.21 424.618 1
 -4 -10 3 8253.51 418.48 2
 4 10 4 1434.21 151.043 7
 -4 -10 4 1396.55 179.374 2
 -4 -10 5 8490.51 442.063 1
 4 10 5 7675.24 322.165 7
 4 -10 -5 7804.36 315.339 3
 4 -10 -6 2651.03 189.685 3
 -4 10 -6 2509.57 187.421 6
 -4 -10 6 2755.89 261.074 1
 4 10 6 2765.26 192.91 7
 4 10 7 8761.37 354.781 8
 -4 10 -7 8990.96 355.005 6
 4 -10 -7 9349.37 354.983 3
 -4 -10 7 9771.32 471.157 1
 4 10 8 7427.65 324.359 8
 -4 10 -8 7736.83 321.759 6
 4 -10 -8 7109.72 313.188 3
 -4 -10 8 7721.02 408.244 1
 4 -10 -9 5185.83 269.333 3
 -4 10 -9 4905.16 262.561 6
 4 10 9 5526.29 278.088 8
 -4 10 -10 6274.86 293.135 6
 4 -10 -10 6224.46 291.642 3
 -4 -10 10 5692.76 344.791 1
 4 10 11 1876.66 169.586 8
 4 -10 -11 1696.13 156.31 3
 -4 10 -11 1771.07 154.133 6
 -4 -10 11 1847.45 200.194 1
 -4 -11 -11 1002.64 136.746 3
 -4 11 10 3198.03 202.644 8
 4 11 -10 2921.67 213.727 6
 -4 11 9 510.414 87.4622 8
 -4 -11 -8 4205.73 262.859 2
 4 -11 8 4137.46 240.223 4
 4 -11 7 297.062 73.7373 4
 -4 -11 -7 390.899 90.8111 2
 4 -11 6 6057.06 287.438 4
 4 11 -6 9482.15 423.885 7
 4 -11 5 413.468 85.5642 4
 -4 11 5 380.64 88.1346 5
 -4 -11 -5 424.71 92.2978 2
 4 11 -5 392.292 95.4268 7
 -4 11 4 9078.65 377.864 5
 4 -11 4 10065.8 385.519 4
 -4 -11 -4 9910.06 417.702 2
 4 11 -4 10282.5 438.172 7
 -4 -11 -3 576.527 112.634 2
 -4 11 3 449.956 90.9427 5
 4 11 -3 582.188 110.361 7
 4 -11 3 594.275 99.1295 4
 -4 -11 -2 10456 431.816 2
 4 11 -2 10369 428.788 7
 -4 11 1 270.51 74.888 5
 4 -11 1 363.348 89.6481 4
 -4 -11 0 9052.37 425.481 2
 4 11 0 7276.85 347.475 7
 4 11 1 330.075 82.3185 7
 -4 -11 1 271.16 92.3887 2
 -4 -11 2 10446 461.505 2
 4 -11 -2 10538.2 378.018 3
 4 11 2 9485.34 383.694 7
 4 -11 -3 1034.51 127.806 3
 -4 -11 3 693.762 154.403 1
 4 -11 -4 12935.2 421.589 3
 -4 -11 4 11209.9 517.851 1
 -4 -11 5 893.839 158.963 1
 4 -11 -5 919.228 118.55 3
 -4 11 -5 694.337 108.145 6
 4 -11 -6 8802.15 347.245 3
 -4 11 -6 7542.86 339.237 6
 -4 -11 6 8229.87 464.374 1
 4 11 6 8369.82 354.411 8
 4 -11 -7 668.278 104.859 3
 -4 11 -7 623.289 105.601 6
 -4 -11 7 732.241 146.738 1
 4 11 7 685.253 110.698 8
 4 -11 -8 5212.61 271.138 3
 -4 11 -8 4548.58 260.797 6
 -4 -11 8 4512.36 331.169 1
 4 11 8 4380.16 253.326 8
 4 -11 -10 3094.17 209.235 3
 -4 11 -10 3314.02 218.293 6
 4 11 10 3229.83 219.149 8
 -4 -12 -9 4347.5 272.475 2
 -4 -12 -8 430.838 91.2697 2
 4 -12 8 534.808 97.3096 4
 4 12 -8 548.262 114.721 7
 -4 -12 -7 3788.38 266.592 2
 4 -12 7 4527.01 256.826 4
 -4 -12 -6 1351.17 155.618 2
 4 -12 6 1419.91 142.914 4
 4 12 -6 1433.74 170.258 7
 -4 -12 -5 3898.28 268.708 2
 4 12 -5 2979.1 255.028 7
 -4 -12 -4 2539.04 213.734 2
 4 12 -4 2933.81 244.231 7
 -4 -12 -3 1393.15 165.302 2
 -4 -12 -2 7116.74 370.832 2
 -4 -12 -1 1069.32 148.599 2
 -4 -12 3 1364.71 206.605 1
 4 -12 -4 2476.2 204.254 3
 -4 -12 4 2437.04 264.606 1
 4 -12 -5 3595.78 235.835 3
 -4 -12 5 3563.12 313.932 1
 4 12 6 1255.05 147.44 8
 -4 -12 6 1238.22 190.999 1
 4 -12 -6 1278.27 142.737 3
 4 12 7 5619.35 294.015 8
 4 -12 -7 5100.98 271.587 3
 -4 12 -8 495.336 99.4483 6
 4 12 8 407.174 89.3024 8
 4 -12 -8 499.622 93.4098 3
 -4 -12 8 678.358 142.558 1
 -4 12 -9 4848.14 260.534 6
 4 -12 -9 4164.87 242.934 3
 -4 -12 9 4249.81 329.964 1
 4 12 9 4744.72 271.599 8
 -4 -13 -8 1023.57 139.145 2
 -4 -13 -7 1225.18 152.396 2
 -4 -13 -6 441.551 110.084 2
 -4 -13 -5 3286.69 250 2
 -4 -13 7 1345.04 205.504 1
 4 -13 -8 760.617 118.231 3
 4 13 8 973.405 132.543 8
 -4 -13 8 1126.86 187.249 1
 5 0 0 36.5453 38.8374 4
 -5 0 0 47.5659 51.7645 8
 5 0 0 16.2825 33.0557 7
 5 0 0 37.0411 50.6458 6
 -5 0 0 -7.8751 56.2712 2
 -5 0 -1 125714 985.032 5
 5 0 1 112139 952.152 7
 -5 0 -1 135656 1222.59 8
 -5 0 1 126175 1150.26 8
 -5 0 -1 124096 1219.93 2
 -5 0 1 121771 1351.22 2
 5 0 -1 126194 1102.49 6
 5 0 1 130856 1007.43 6
 5 0 -1 107417 944.914 7
 -5 0 1 115319 943.42 5
 5 0 -1 98507.7 920.984 4
 5 0 1 129850 990.271 4
 5 0 -2 18267.5 377.977 4
 5 0 -2 17571.8 382.137 7
 -5 0 -2 17352 452.454 2
 -5 0 2 19639.6 601.61 2
 -5 0 2 17808.6 429.255 8
 -5 0 -2 18265.5 384.99 5
 5 0 2 19081.9 396.29 4
 -5 0 2 17314.8 360.251 5
 5 0 -3 132636 1074.52 6
 5 0 -3 139823 1063.02 3
 -5 0 3 136159 1211.78 8
 5 0 3 134956 1029.15 4
 -5 0 3 139590 1376.57 1
 -5 0 -3 148713 1173.97 5
 5 0 3 149313 1124.3 7
 -5 0 -3 132457 1197.84 2
 5 0 -4 19781.3 434.658 6
 5 0 -4 24087 449.609 3
 5 0 -4 21698.2 430.85 4
 -5 0 4 23050.7 500.863 8
 -5 0 -4 22321.6 453.604 5
 5 0 4 20102.1 404.611 4
 -5 0 4 20004.6 524.539 1
 5 0 4 22870.7 449.328 7
 -5 0 4 20744.3 687.12 2
 -5 0 -4 21351.9 477.523 2
 -5 0 -5 28247.7 521.639 5
 5 0 -5 24210.9 461.183 3
 5 0 -5 23471.3 468.03 4
 -5 0 5 23838.6 761.736 2
 -5 0 5 24278.6 518.032 8
 5 0 -5 28059.4 537.006 6
 -5 0 -5 24254.3 503.596 2
 5 0 5 24708.7 467.702 7
 -5 0 -6 30191.9 580.453 5
 -5 0 -6 31480.1 779.346 3
 -5 0 6 34494.1 712.538 1
 -5 0 6 34012.7 618.438 8
 -5 0 -6 34218.3 615.181 2
 5 0 -6 35413.7 587.525 4
 5 0 6 34512.3 584.311 4
 -5 0 6 31055.5 907.816 2
 5 0 6 37209.3 623.712 7
 5 0 -6 29221.3 549.266 6
 5 0 -6 32301.5 540.785 3
 -5 0 7 4241.44 255.57 1
 -5 0 -7 4435.22 230.293 2
 5 0 7 4284.28 204.775 7
 5 0 7 4103.35 209.306 4
 5 0 -7 4019.25 199.059 3
 5 0 -7 4218.39 215.144 6
 5 0 8 5307.99 237.206 4
 5 0 -8 5202.94 241.892 4
 -5 0 8 5369.28 285.531 1
 5 0 -8 5562.01 245.657 6
 -5 0 -8 5083.22 307.351 3
 -5 0 -8 5312.78 257.42 2
 -5 0 8 5234.35 254.766 8
 5 0 8 4900.21 222.115 7
 -5 0 -8 4680.39 227.553 5
 5 0 8 5011.4 170.458 1
 5 0 -8 5180.42 235.169 3
 -5 0 8 4911.52 374.693 2
 5 0 9 438.279 80.0272 4
 5 0 -9 508.573 86.4025 4
 -5 0 -9 406.907 98.6715 3
 5 0 -9 389.677 79.4309 6
 5 0 9 397.391 73.0222 7
 -5 0 9 598.091 154.369 2
 -5 0 9 525.494 86.686 8
 5 0 9 365.335 66.75 1
 -5 0 -9 439.301 80.053 5
 5 0 10 4813.42 247.849 4
 5 0 -10 4707.93 244.395 3
 5 0 -10 4107.16 228.916 6
 -5 0 10 4766.59 285.972 1
 5 0 11 189.351 58.9074 8
 -5 0 11 262.15 70.0721 8
 5 0 -11 254.767 68.2536 6
 -5 0 -11 176.554 57.969 6
 5 0 -11 268.517 67.7941 4
 -5 0 -11 253.711 72.8188 5
 5 0 11 223.24 59.7016 7
 -5 0 11 134.988 95.5942 2
 -5 0 11 310.252 87.5025 1
 5 0 11 182.994 70.1185 1
 -5 0 -11 223.068 86.273 3
 5 0 -11 160.185 63.297 3
 -5 0 12 2516.6 186.399 8
 -5 0 12 2556.59 289.582 2
 5 0 -12 2668.26 181.968 4
 5 0 -12 2249.63 182.194 6
 -5 0 -12 2834.91 206.18 5
 5 0 12 2633.03 181.122 7
 5 0 12 2377.74 189.62 1
 -5 0 -12 2485.76 180.978 6
 -5 0 -12 2477.21 209.022 3
 -5 0 13 10.9901 41.8606 8
 -5 0 13 6.02822 80.8811 2
 5 0 -13 15.2051 43.7798 6
 -5 0 -13 21.2224 51.9586 3
 5 0 13 25.5468 49.4254 1
 5 0 -13 52.4296 46.3942 4
 -5 0 -13 50.197 52.7022 5
 5 0 13 9.60112 38.0334 7
 5 0 14 1526.19 153.652 1
 5 0 -14 1550.3 140.026 4
 5 0 -14 1341.31 138.535 6
 -5 0 -14 1196.04 161.851 5
 -5 0 -14 1533.07 157.388 3
 -5 0 14 1660.97 159.182 8
 -5 0 14 1742.36 243.171 2
 5 0 14 1685.28 149.413 7
 -5 0 15 63.4117 49.3979 8
 5 0 -15 23.3398 38.0152 4
 5 0 -15 69.4589 56.6738 6
 5 0 15 40.7378 43.6355 7
 -5 0 -15 71.1026 57.3131 3
 -5 0 15 6.0254 75.337 2
 -5 0 -15 45.5254 45.5089 5
 5 0 15 39.546 50.3243 1
 -5 1 15 133.263 62.2098 8
 -5 1 15 190.679 101.394 2
 5 1 -15 239.289 67.7618 6
 -5 -1 -15 182.047 70.8593 3
 5 -1 15 181.376 66.8083 1
 5 1 -15 173.423 57.6041 4
 -5 -1 -15 175.511 67.7388 5
 5 -1 15 244.004 66.5969 7
 5 -1 14 796.226 114.091 1
 5 1 -14 970.385 111.89 4
 5 1 -14 787.598 108.878 6
 -5 -1 -14 1047.87 131.928 5
 -5 -1 -14 1008.98 128.325 3
 -5 1 14 992.239 120.902 8
 -5 1 14 952.36 181.64 2
 5 -1 14 1047.66 119.727 7
 -5 1 13 183.113 60.4567 8
 -5 -1 -13 244.595 77.812 5
 5 1 -13 172.802 59.7976 4
 5 -1 13 149.469 63.9812 1
 5 1 -13 185.6 64.4103 6
 -5 -1 -13 170.695 71.903 3
 5 -1 13 168.648 54.7479 7
 -5 1 13 219.949 108.373 2
 -5 1 12 3463.92 209.1 8
 5 1 -12 3046.42 208.894 6
 5 -1 12 4069.02 231.968 7
 5 -1 12 3439.07 225.961 1
 -5 -1 -12 3657.56 230.438 5
 -5 1 12 3376.83 320.39 2
 -5 -1 -12 2655.83 229.153 3
 5 1 -12 3486.58 203.471 4
 5 -1 11 1732.2 146.406 7
 5 -1 11 1561.06 151.814 1
 -5 1 11 1314.29 209.452 2
 5 1 -11 1448.57 136.003 4
 -5 -1 -11 1686.73 179.759 3
 -5 -1 -11 1890.26 166.572 5
 -5 -1 -11 1618.9 147.556 6
 5 -1 10 7565.24 303.868 4
 -5 -1 -10 7676.49 328.529 2
 -5 1 10 8024.64 307.043 8
 -5 -1 -9 8541.95 314.616 5
 -5 1 9 8670.21 386.947 1
 5 -1 9 8486.56 305.72 4
 -5 1 9 9886.5 335.351 8
 -5 1 9 8641.18 502.338 2
 5 -1 9 8831.14 308.985 7
 5 1 -9 8537.23 309.6 4
 -5 -1 -9 9560.53 393.462 3
 -5 -1 -9 8358.5 340.237 2
 5 -1 9 8949.92 335.421 1
 5 1 -9 9103.59 314.616 3
 -5 -1 -8 28327.8 681.099 3
 5 1 -8 27380.6 569.216 6
 -5 -1 -8 27842.4 609.13 2
 5 1 -8 27970.3 539.743 4
 5 1 -8 26694 517.389 3
 -5 1 8 29513.1 910.172 2
 5 -1 8 26082 513.41 7
 -5 -1 -8 25602 541.509 5
 5 -1 8 34004.6 492.631 1
 -5 1 8 27480.6 546.909 8
 -5 1 8 34654.8 747.162 1
 -5 -1 -7 33336.2 644.368 2
 5 -1 7 33009.2 561.919 7
 5 -1 7 31736 585.623 4
 -5 1 7 32524.6 702.32 1
 5 1 -7 34273 570.881 3
 -5 -1 -6 57002.1 832.454 2
 -5 -1 -6 70729.8 1167.09 3
 -5 -1 -6 70889.2 858.07 5
 -5 1 6 62859.1 1260 2
 -5 1 6 63272.7 827.541 8
 5 1 -6 57388.1 756.399 6
 5 -1 6 55955.1 549.364 1
 5 1 -6 50645.4 706.697 4
 5 -1 6 59922.7 811.269 4
 5 -1 6 59443.7 739.714 7
 -5 1 5 47000.7 1071.07 2
 -5 -1 -5 43192.8 713.271 2
 -5 1 5 46554.8 791.096 1
 5 1 -5 39663.8 606.147 4
 5 1 -5 47672.9 642.058 3
 -5 -1 -5 41928.3 903.155 3
 -5 -1 -5 46695.4 689.019 5
 5 -1 5 45272 641.961 4
 -5 1 5 44237 691.627 8
 -5 -1 -4 85764.5 956.903 5
 5 1 -4 107755 946.921 3
 5 1 -4 109398 972.823 4
 5 -1 4 118316 1023.22 4
 5 1 -4 85363.1 938.443 6
 -5 1 4 107656 1194.98 1
 -5 1 4 104463 1544.57 2
 -5 1 4 113543 1101.53 8
 -5 -1 -3 60968.4 842.963 2
 -5 1 3 58854.2 1100.22 2
 5 -1 3 61017.5 700.933 4
 5 1 -2 222093 1296.59 4
 5 1 -2 220197 1433.69 7
 -5 -1 -2 214832 1638.7 2
 -5 -1 -2 214305 1334.55 5
 -5 1 2 210213 1340.19 5
 -5 1 2 226488 2001.85 2
 -5 1 2 200104 1492.55 8
 5 -1 2 225517 1405.83 4
 5 1 -1 71544.2 739.757 4
 5 -1 1 72880.8 760.179 4
 5 -1 1 62942.6 808.067 6
 5 1 -1 77669.2 824.716 7
 5 1 -1 78613.9 804.195 6
 -5 -1 -1 75269.6 737.576 5
 -5 1 1 78480.2 793.159 5
 -5 1 1 68845.3 1020.05 2
 -5 1 1 76734 871.641 8
 -5 -1 -1 77026.6 971.958 8
 5 1 0 200863 1271.42 4
 5 -1 0 206390 1357.69 4
 5 -1 0 225077 1400.56 6
 5 1 0 203919 1376.84 6
 -5 1 0 201129 1292.89 5
 -5 -1 0 218596 1262.03 5
 -5 1 0 234625 1547.94 8
 -5 -1 0 235916 1673.17 8
 5 -1 0 180527 1187.29 7
 -5 1 0 212650 1658.25 2
 -5 -1 0 212013 1762.58 2
 5 1 0 209892 1350.24 7
 5 -1 -1 79057.6 801.296 4
 5 1 1 71932.9 700.703 4
 5 1 1 80226.1 836.038 7
 5 -1 -1 69384.6 695.021 7
 5 -1 -1 83468.6 880.268 6
 -5 -1 1 79921 1104.7 2
 -5 1 -1 76743.5 915.496 2
 -5 1 -1 66738.5 833.973 8
 -5 -1 1 85451 977.71 8
 -5 -1 1 74386.7 734.901 5
 -5 1 -1 79558.3 789.805 5
 -5 1 -2 215587 1354.35 5
 -5 -1 2 219369 1284.95 5
 5 -1 -2 199709 1275.27 7
 5 1 2 221014 1387.74 6
 5 1 2 214012 1291.41 4
 5 1 2 205251 1340.95 7
 5 -1 -2 207775 1424.76 4
 -5 -1 2 237823 1829.23 1
 -5 -1 2 220378 1981.66 2
 -5 1 -2 217887 1537.8 2
 5 -1 -2 215965 1327.59 3
 -5 1 -2 246554 1728.34 8
 5 -1 -3 69787.8 787.504 6
 -5 -1 3 74257.8 902.316 8
 5 1 3 68397.6 699.833 4
 -5 -1 3 71751.8 1212.36 2
 -5 1 -3 69132.3 781.19 5
 5 -1 -3 65806.1 729.12 4
 5 1 4 105357 897.659 4
 5 -1 -4 107055 966.581 3
 5 1 4 106537 988.233 7
 -5 -1 4 105376 1136.77 8
 5 -1 -4 108882 998.906 4
 -5 -1 4 107805 1564.46 2
 5 -1 -4 107136 998.469 6
 -5 1 -5 47938.6 679.672 5
 -5 1 -5 49805.6 699.036 2
 -5 -1 5 45289.5 822.348 1
 5 1 5 59003.7 714.561 4
 5 -1 -5 50757 697.533 4
 5 -1 -5 64492.6 789.561 6
 -5 -1 5 47790.5 1108.19 2
 5 1 5 51794.9 687.773 7
 5 -1 -5 50459.8 669.636 3
 -5 -1 5 55543.4 807.394 8
 -5 -1 6 64912.7 1308.6 2
 -5 1 -6 59559.9 786.312 5
 -5 -1 6 63937.2 981.493 1
 -5 1 -6 74859.1 875.01 2
 -5 1 -6 67240.8 1141.48 3
 5 1 6 64558.3 772.068 4
 5 -1 -6 64524 799.477 4
 -5 -1 6 66291.1 906.25 8
 5 1 6 63488.3 766.951 7
 5 -1 -6 58632.5 749.655 3
 5 -1 -6 81729.6 953.746 6
 5 1 7 35339.7 597.79 4
 5 -1 -7 39359 672.599 6
 -5 -1 7 39636.1 769.059 1
 5 -1 -7 36165.5 605.236 3
 -5 -1 7 36616.7 687.136 8
 -5 1 -7 37633.1 658.55 2
 5 1 8 27637.5 527.668 7
 5 1 8 27818.1 528.299 4
 5 -1 -8 30655.8 595.227 6
 -5 1 -8 27362.7 568.423 2
 -5 1 -8 27673.4 708.666 3
 -5 -1 8 26632.1 643.378 1
 -5 -1 8 28637.3 921.707 2
 -5 1 -8 27575.8 553.44 5
 5 1 8 30374.7 415.489 1
 5 -1 -8 26678.2 541.766 4
 -5 -1 9 9404.31 352.052 8
 5 -1 -9 9225.22 325.799 4
 5 -1 -9 9734.16 343.056 3
 5 -1 -9 7660.17 306.59 6
 -5 1 -9 9212.48 394.259 3
 -5 -1 9 8948.59 551.489 2
 -5 1 -9 8221.05 310.557 5
 5 1 9 9159.98 310.531 7
 5 1 9 10124.5 257.214 1
 5 1 10 6826.93 300.198 1
 -5 -1 10 6823.44 343.612 1
 -5 1 -10 7478.46 354.182 3
 -5 -1 10 7796.47 324.107 8
 5 -1 -10 7199.47 296.215 3
 -5 -1 11 1417.38 145.412 8
 5 -1 -11 1287.06 129.003 4
 5 1 11 1268 130.984 8
 5 -1 -11 1705.05 150.91 6
 -5 -1 11 1410.88 223.195 2
 -5 1 -11 1337.15 159.85 3
 -5 1 -11 1260.27 131.022 5
 5 1 11 1415.41 129.809 7
 5 1 11 1308.16 142.912 1
 -5 1 -12 3449.21 213.201 6
 -5 1 -12 3881.23 230.799 5
 5 -1 -12 3638.27 213.061 4
 5 1 12 3716.91 207.365 7
 5 1 12 3368.73 224.354 1
 -5 -1 12 3430.81 229.12 8
 -5 1 -12 3665.7 258.976 3
 5 -1 -12 3244.78 211.505 6
 -5 -1 12 4133.44 372.16 2
 -5 -1 12 3280.76 252.674 1
 5 1 12 3537.34 218.992 8
 5 -1 -12 3353.6 215.407 3
 5 -1 -13 235.998 65.2553 4
 -5 1 -13 122 62.7926 3
 -5 1 -13 153.934 61.5984 5
 5 1 13 93.3019 51.2745 7
 -5 -1 13 100.678 102.489 2
 5 1 13 144.844 65.4195 1
 -5 -1 14 1150.77 207.348 2
 5 -1 -14 1184.27 143.888 6
 5 1 14 954.178 130.255 1
 -5 -1 14 1179.54 143.609 8
 -5 1 -14 1039.5 130.885 5
 -5 1 -14 1304.17 150.401 3
 5 1 14 1052.65 116.71 7
 5 -1 -14 1293.17 131.713 4
 -5 1 -15 108.546 61.5475 5
 -5 1 -15 56.9939 52.6378 3
 5 1 15 40.1845 50.7538 1
 -5 -1 15 74.1565 88.1999 2
 5 -1 -15 14.59 40.6533 4
 5 1 15 47.9127 41.3863 7
 -5 2 15 1242.38 130.897 8
 5 2 -15 789.111 108.131 6
 -5 -2 -15 1316.17 148.022 5
 -5 2 15 1262.41 200.3 2
 5 2 -15 1079.95 114.443 4
 5 -2 15 1256.05 133.512 7
 5 -2 15 1244.05 140.256 1
 -5 -2 -15 1313.34 145.301 3
 -5 -2 -14 862.098 121.369 3
 -5 2 14 765.595 101.811 8
 -5 2 13 1921.5 154.227 8
 5 2 -13 2512.38 188.168 6
 -5 -2 -13 1844.91 174.152 3
 5 -2 13 1667.09 161.356 1
 5 -2 13 1922.49 162.501 7
 5 2 -13 1634.99 144.737 4
 -5 -2 -13 1823.26 170.913 5
 -5 2 13 1881.03 246.76 2
 -5 2 12 1346.37 128.474 8
 5 -2 12 1501.71 140.706 7
 5 2 -12 1439.04 144.383 6
 -5 -2 -12 1330.82 152.534 3
 5 -2 12 1590.95 159.341 1
 5 2 -12 1384.89 132.373 4
 -5 -2 -12 1418.5 150.099 5
 -5 2 12 1571.83 226.34 2
 5 -2 11 1733.86 149.729 4
 -5 -2 -11 2046.62 174.847 5
 5 2 -11 1872.91 151.409 4
 -5 -2 -11 2012.96 188.815 3
 -5 2 11 1957.72 155.964 8
 -5 2 11 2066.94 253.846 2
 5 -2 11 1829.39 164.983 1
 -5 -2 -10 4054.28 271.744 3
 -5 -2 -10 3354.46 216.513 2
 -5 2 10 3659.42 332.835 2
 5 -2 10 2953.32 191.524 4
 5 -2 10 3473.3 225.439 1
 5 2 -10 3579.01 204.641 4
 5 2 -9 1726.27 142.043 4
 5 -2 9 2308.03 161.781 7
 -5 -2 -9 2176.63 166.63 5
 5 -2 9 2184.83 183.295 1
 -5 2 9 2301.79 262.856 2
 5 -2 9 2208.4 158.094 4
 -5 -2 -9 1941.75 167.264 2
 -5 -2 -9 1950.32 186.995 3
 -5 2 9 2292.46 162.851 8
 -5 -2 -8 18846.6 546.684 3
 5 2 -8 19793.5 472.864 6
 -5 2 8 18104.4 708.585 2
 5 2 -8 16929.8 425.291 4
 -5 -2 -8 17411.4 488.308 2
 -5 -2 -8 17838.5 445.7 5
 -5 2 8 18566.9 449.678 8
 5 -2 8 16641.1 438.082 4
 5 -2 8 17169.3 457.466 1
 5 -2 8 17054.9 430.42 7
 5 2 -7 2096.97 160.327 6
 5 -2 7 2523.67 168.476 4
 -5 -2 -7 2479.22 209.887 3
 5 -2 7 2401.78 124.929 1
 -5 -2 -7 2618.56 185.738 2
 -5 2 7 2531.84 162.661 8
 5 -2 7 2282.54 151.575 7
 -5 2 6 27600.1 622.733 1
 5 -2 6 30561.7 549.672 4
 -5 2 6 28765.9 537.893 8
 -5 -2 -6 29461.7 606.376 2
 5 2 -6 24152.7 515.28 6
 5 -2 6 28029.3 501.991 7
 5 2 -6 31424.7 524.062 3
 -5 -2 -6 30416.6 711.063 3
 -5 -2 -6 35966.9 594.872 5
 5 -2 6 29517 398.687 1
 -5 2 5 11302.5 334.048 8
 5 2 -5 10607.7 319.867 6
 5 -2 5 11676.2 331.403 4
 -5 2 5 10969.2 505.276 2
 -5 2 5 11735 398.379 1
 -5 -2 -5 10908.5 328.685 5
 -5 -2 -5 12142.1 463.318 3
 5 -2 5 11174.2 307.878 7
 5 2 -5 11312.9 302.631 3
 5 2 -5 10219.9 306.224 4
 -5 -2 -5 11003.3 372.361 2
 -5 -2 -4 38092.4 675.495 2
 -5 2 4 40703.5 641.312 8
 5 2 -4 39298 583.943 4
 -5 2 4 39967.5 940.758 2
 5 -2 4 48589.4 657.979 7
 5 2 -4 37424.6 586.066 6
 5 -2 4 45156.9 644.171 4
 -5 -2 -4 42209.9 856.629 3
 5 2 -3 31781 499.57 4
 -5 -2 -3 32498.1 640.863 2
 5 -2 3 34101.6 534.2 4
 5 -2 3 30625.9 468.97 7
 -5 2 3 33139.1 573.029 8
 -5 -2 -3 35863.2 602.005 5
 -5 2 3 34158.7 834.703 2
 -5 -2 -2 29214.5 484.265 5
 5 2 -2 27727.6 450.43 4
 -5 2 2 28534.2 702.813 2
 -5 2 1 120607 1181.92 8
 5 2 -1 125404 994.121 4
 5 2 -1 115205 985.325 6
 -5 2 1 120919 1014.23 5
 5 2 -1 125081 1098.17 7
 -5 2 1 112755 1279.47 2
 -5 -2 -1 122758 1267.55 2
 -5 -2 -1 134327 989.602 5
 -5 -2 0 83157.2 740.333 5
 -5 -2 0 84843 1111.93 2
 -5 2 0 78162.3 966.359 2
 -5 2 0 95550.8 920.293 5
 5 2 0 81457.5 892.79 7
 -5 2 0 86819.6 924.377 8
 5 2 0 86678.9 897.33 6
 5 2 0 82126.8 774.52 4
 5 -2 0 101642 904.206 4
 -5 -2 1 124742 910.561 5
 5 2 1 114378 868.171 4
 5 2 1 123418 969.891 6
 -5 2 -1 106368 1057.74 2
 -5 2 -1 131368 1171.52 8
 5 -2 -1 109900 857.586 7
 5 2 1 124010 1088.83 7
 5 2 2 27937.4 467.954 6
 5 -2 -2 21663.9 483.472 4
 -5 2 -2 25921.9 473.299 5
 -5 -2 2 31848.8 456.259 5
 -5 2 -2 23518.2 491.724 8
 5 2 2 31828.2 468.978 4
 -5 -2 2 30857.8 745.745 2
 -5 2 -3 30277.1 531.646 5
 -5 -2 3 30758.7 454.608 5
 5 2 3 29490.2 443.975 4
 -5 -2 3 29366.2 593.441 8
 5 2 3 31714.2 567.064 7
 5 -2 -3 27985.7 444.2 7
 -5 -2 3 28988.9 650.345 1
 5 -2 -3 30743.9 528.466 3
 -5 -2 3 29574 767.969 2
 -5 2 -4 26332.5 483.201 2
 -5 -2 4 21607 651.46 1
 -5 -2 4 34913 652.675 8
 5 -2 -4 37396.5 572.756 3
 5 -2 -4 35542.7 568.985 4
 5 2 4 37902.1 596.165 7
 5 2 4 36131.7 503.114 4
 5 -2 -4 39917.9 615.951 6
 -5 -2 4 36532.1 912.824 2
 -5 2 -4 34388.5 573.729 5
 -5 -2 5 10038.3 363.102 8
 5 2 5 10152.8 280.865 4
 5 -2 -5 10511 319.703 6
 -5 2 -5 11502.1 344.742 5
 5 -2 -5 11102.8 329.278 4
 -5 -2 5 10058.9 495.815 2
 5 -2 -5 10184.4 302.174 3
 5 2 5 10349.3 318.277 7
 -5 -2 6 31908.4 638.246 8
 -5 2 -6 28638 531.801 2
 -5 2 -6 22692 492.966 5
 5 2 6 30938.2 523.051 4
 5 -2 -6 27472.3 524.52 3
 5 2 6 27608.3 514.724 7
 5 -2 -6 28019.8 535.987 6
 -5 -2 6 25193.7 831.675 2
 -5 -2 6 28456.9 655.838 1
 5 -2 -6 29074.6 542.564 4
 -5 -2 7 3592.69 225.565 8
 5 -2 -7 3303.77 191.023 4
 5 2 7 3400.94 187.777 7
 5 -2 -7 4126.2 215.347 6
 -5 -2 7 3496.94 234.927 1
 5 -2 -7 3390.77 193.149 3
 -5 2 -7 3588.01 205.51 5
 -5 -2 7 3513.88 325.828 2
 5 2 7 3194.36 170.474 4
 5 2 8 17170.7 419.146 7
 5 -2 -8 20901.6 482.312 4
 5 -2 -8 16812.1 435.161 3
 5 -2 -8 21525.1 518.658 6
 -5 2 -8 17345.6 570.053 3
 -5 -2 8 15274.4 491.331 1
 -5 2 -8 17605.5 445.292 5
 -5 -2 8 17272.6 500.83 8
 5 2 8 17229.1 425.364 4
 -5 -2 8 18514.6 744.226 2
 5 2 9 3928.67 201.924 7
 5 -2 -9 3604.83 219.911 6
 5 -2 -9 3980.53 220.098 4
 -5 -2 9 3976.63 361.394 2
 -5 2 -9 4208.34 277.094 3
 -5 -2 9 3829.2 252.847 1
 -5 2 -9 3409.99 197.68 5
 -5 -2 9 4413.01 256.986 8
 5 2 9 3953.89 154.861 1
 5 -2 -9 3898.23 215.75 3
 5 -2 -10 4989.51 265.618 6
 -5 2 -10 2563.03 215.066 3
 -5 -2 10 3384.92 241.815 1
 5 -2 -10 3515.67 209.251 3
 -5 -2 10 3832.46 243.505 8
 -5 2 -10 3259.58 201.367 5
 5 2 10 2142.97 148.675 1
 5 2 10 3443.02 192.909 7
 -5 -2 11 2902.54 230.053 1
 5 -2 -11 2792.32 190.645 3
 5 -2 -11 2851.5 192.599 4
 5 2 11 2549.13 173.024 7
 5 -2 -11 2633.62 198.452 6
 -5 -2 11 3065.31 223.368 8
 -5 2 -11 2600.35 216.572 3
 5 2 11 2529.06 200.027 1
 -5 2 -11 2923.92 190 5
 -5 2 -11 2589.07 174.997 6
 5 2 11 2780.33 196.215 8
 -5 -2 11 2705.11 305.352 2
 -5 -2 12 1459.46 168.47 1
 5 -2 -12 1210.55 133.693 3
 -5 -2 12 1506.05 237.517 2
 5 -2 -12 1398.1 136.895 4
 5 2 12 1335.19 139.114 8
 -5 2 -12 1429.51 142.545 5
 5 -2 -12 1594.53 165.708 6
 5 2 12 1480.1 134.455 7
 -5 -2 12 1561.04 166.34 8
 -5 2 -12 1476.33 139.176 6
 5 2 12 1254.76 142.635 1
 -5 2 -12 1934.98 196.211 3
 -5 2 -13 1946.33 184.726 3
 5 2 13 1968.48 173.543 1
 -5 -2 13 2084.72 200.67 1
 -5 2 -13 2010.93 162.797 6
 5 -2 -13 2048.16 165.044 4
 5 2 13 1910.76 169.589 7
 -5 -2 13 2141.37 278.225 2
 -5 -2 14 771.965 173.763 2
 5 -2 -14 839.53 110.244 4
 -5 2 -14 809.164 124.248 3
 5 2 14 851.276 120.476 1
 -5 2 -14 858.062 110.441 6
 5 2 15 907.339 122.741 1
 -5 -2 15 1191.91 215.558 2
 -5 2 -15 910.262 130.265 5
 5 2 15 1169.39 122.653 7
 5 -2 -15 1283.49 135.623 4
 5 3 -15 286.857 69.56 4
 -5 -3 -15 414.232 91.5962 3
 -5 3 15 274.213 113.87 2
 -5 3 15 316.352 68.4143 8
 5 3 -15 125.004 62.8741 6
 5 -3 15 294.635 86.0471 1
 5 -3 15 315.486 78.0731 7
 -5 -3 -15 280.324 82.2054 5
 -5 3 14 1023.9 186.327 2
 5 -3 14 827.856 116.618 1
 5 3 -14 917.932 109.667 4
 -5 -3 -14 1029.58 136.018 3
 -5 -3 -14 796.022 122.26 5
 5 3 -13 3270.23 207.696 6
 -5 3 13 2509.66 171.838 8
 5 -3 13 2417.69 195.036 7
 -5 -3 -13 2957.9 222.361 5
 5 3 -13 2945.92 190.536 4
 -5 3 13 3180.03 319.802 2
 5 -3 13 2675.6 201.042 1
 -5 -3 -13 2669.98 204.427 3
 5 -3 12 483.497 89.4612 7
 5 3 -11 6433.48 274.342 4
 -5 -3 -11 7324.06 327.633 5
 5 3 -11 7488.66 301.271 6
 -5 -3 -11 6352.07 333.669 2
 -5 -3 -11 6902.05 323.678 3
 -5 3 11 6951.22 280.682 8
 5 -3 11 6413.9 284.068 4
 5 -3 10 1369.1 146.667 1
 5 3 -10 1294.59 127.578 4
 -5 -3 -10 1671.07 179.662 3
 -5 -3 -10 1583.1 154.698 5
 5 -3 10 1642.72 146.106 4
 -5 3 10 1556.35 134.845 8
 -5 3 9 16733.4 424.019 8
 -5 -3 -9 17008.7 483.851 2
 -5 -3 -9 19997.9 584.172 3
 5 -3 9 17544.6 454.853 7
 -5 -3 -9 20147.5 530.637 5
 5 -3 9 17111 438.961 4
 5 -3 9 17356.7 489.183 1
 5 3 -8 2179.75 156.19 4
 5 3 -8 2025.2 157.065 6
 5 -3 8 2260.57 187.379 1
 5 -3 8 1833.32 147.103 7
 -5 -3 -8 2396.25 179.098 5
 -5 -3 -8 2364.71 203.482 3
 -5 3 8 2254.49 158.382 8
 -5 -3 -8 2338.12 185.653 2
 5 -3 8 2363.8 169.329 4
 5 -3 7 51041.5 731.766 7
 -5 -3 -7 51982.6 904.491 3
 -5 3 7 48069.6 710.528 8
 5 -3 7 53036.8 770.667 4
 -5 -3 -7 49430.7 810.418 2
 5 -3 6 8418.93 303.521 4
 5 3 -6 7545.35 272.559 4
 -5 3 6 7663.5 444.18 2
 -5 -3 -6 6401.48 256.341 5
 5 -3 6 8611.14 289.99 7
 -5 -3 -6 7607.52 354.824 3
 5 3 -6 5834.02 255.18 6
 -5 3 6 7549.8 279.714 8
 5 -3 6 10248.2 262.511 1
 -5 3 5 114854 1054.26 8
 -5 -3 -5 113051 1042.91 5
 5 -3 5 113256 1067.66 4
 -5 -3 -5 113683 1251.27 2
 5 -3 5 110050 993.41 7
 -5 -3 -5 108278 1349.82 3
 -5 3 5 107801 1588.43 2
 5 3 -5 107353 987.384 4
 -5 -3 -4 11465.2 382.471 2
 5 3 -4 11897.9 328.089 6
 -5 3 4 10800 487.615 2
 5 3 -4 9720.72 288.085 4
 5 -3 4 9724.21 305.462 4
 -5 -3 -4 10264.6 435.452 3
 5 -3 4 10865.9 292.666 7
 -5 3 4 11081.4 326.878 8
 -5 3 3 168294 1874 2
 5 -3 3 179746 1294.94 4
 -5 -3 -3 180542 1600.85 2
 -5 -3 -3 172655 1270.22 5
 5 3 -3 167660 1330.2 6
 5 3 -3 168657 1178.06 4
 -5 3 2 2936.92 234.358 2
 5 3 -2 2821.16 174.686 7
 5 -3 2 3376.16 184.238 4
 5 3 -2 2908.15 148.156 4
 -5 -3 -2 2474.1 137.933 5
 -5 -3 -2 2851.2 196.832 2
 5 -3 1 181713 1268.01 4
 5 -3 1 165257 1020.72 7
 5 3 -1 174168 1353.71 7
 -5 3 1 161261 1565.28 2
 5 3 -1 187228 1169.25 4
 5 3 -1 166094 1175.83 6
 -5 3 1 180990 1335.41 8
 -5 3 1 175782 1286.92 5
 -5 -3 -1 150957 1492.28 2
 -5 -3 -1 167785 1118.82 5
 5 3 0 15546.7 332.489 4
 5 -3 0 13439.1 341.103 4
 5 3 0 14299.6 345.369 6
 -5 -3 0 15768.9 457.719 8
 -5 3 0 16016 387.565 8
 -5 3 0 14254.2 357.562 5
 -5 -3 0 14790.8 477.733 2
 5 3 0 15324.8 392.293 7
 5 -3 0 16074.9 391.918 6
 -5 3 -1 172206 1280.12 5
 -5 -3 1 184789 1046.58 5
 5 -3 -1 162489 1191.37 3
 5 -3 -1 165101 1226.49 4
 5 3 1 197322 1298.69 6
 5 -3 -1 168093 973.226 7
 -5 -3 1 176317 1506.67 8
 -5 3 -1 184813 1374.69 8
 -5 -3 1 190442 1800.4 2
 -5 3 -1 165432 1246.58 2
 5 -3 -1 205434 1363.63 6
 5 3 1 181704 1374.82 7
 -5 -3 2 1584.97 99.9409 5
 -5 3 -2 1482.8 119.811 5
 5 -3 -2 1393.23 122.495 6
 -5 -3 2 1804.8 165.114 8
 -5 3 -2 1656.29 132.793 8
 5 3 2 1792.34 140.527 7
 5 3 2 1484.24 113.147 6
 5 -3 -2 2008.58 107.923 7
 5 -3 -2 1321.49 128.069 4
 -5 -3 2 1963.68 182.304 1
 -5 3 -2 1637.21 111.568 2
 -5 -3 2 1775.48 189.701 2
 5 -3 -2 1654.18 126.979 3
 -5 3 -3 173281 1302.32 5
 5 -3 -3 202239 1512.63 6
 -5 -3 3 189425 1099.95 5
 -5 -3 3 186319 1584.46 8
 -5 3 -3 147908 1044.91 2
 -5 -3 3 149788 1521.39 1
 5 3 3 180647 1377.4 7
 5 -3 -3 169550 1317.28 4
 5 -3 -3 189122 1331.14 3
 -5 -3 3 170000 1845.62 2
 5 -3 -3 177095 1074.32 7
 5 3 4 10155.8 263.915 4
 -5 -3 4 9577.64 384.347 1
 -5 -3 4 9169.3 245.834 5
 5 -3 -4 8613.99 321.884 6
 -5 -3 4 8713.59 453.738 2
 5 3 4 10077.1 326.289 7
 5 -3 -4 10084.4 305.962 3
 -5 3 -4 10613.2 324.93 5
 -5 -3 4 9931.85 359.706 8
 5 3 5 122285 967.953 4
 5 -3 -5 141266 1174.46 4
 -5 -3 5 126388 1776.6 2
 5 -3 -5 135553 1194.44 6
 5 -3 -5 127228 1116.47 3
 -5 -3 5 128824 1439.43 1
 5 3 5 124962 1134.47 7
 -5 3 -5 128667 1173.2 5
 5 -3 -6 6231.08 256.921 3
 5 -3 -6 5973.32 260.568 6
 5 -3 -6 5415.22 244.655 4
 -5 -3 6 5838.66 286.497 8
 -5 -3 6 6211.38 312.092 1
 -5 3 -6 6276.19 259.033 5
 -5 -3 6 6351.97 408.973 2
 5 -3 -7 54861.1 788.846 6
 5 3 7 51437.6 714.317 7
 -5 3 -7 50951.5 757.4 5
 5 -3 -7 56108.8 784.674 3
 5 -3 -7 52686.5 790.005 4
 -5 -3 7 55237.2 1244.11 2
 5 3 8 1798.81 148.805 7
 -5 3 -8 1568.27 145.387 5
 -5 -3 8 1919.43 182.964 1
 5 -3 -8 1424.12 136.184 6
 -5 -3 8 1555.96 161.634 8
 5 -3 -8 1518.17 136.889 3
 -5 3 -8 1521.34 194.025 3
 5 -3 -8 1485.96 136.938 4
 -5 -3 8 1493.28 230.349 2
 -5 -3 9 21091.6 577.84 8
 5 -3 -9 20033.1 488.512 3
 -5 3 -9 19676.4 477.947 5
 -5 -3 9 19032.1 565.465 1
 5 3 9 19339.8 448.284 7
 5 -3 -9 19403.5 480.949 4
 5 -3 -9 20128.4 498.996 6
 -5 -3 9 18927.2 768.292 2
 5 3 9 19102.2 345.212 1
 5 -3 -10 1872.62 161.782 6
 -5 -3 10 2047.24 270.836 2
 5 -3 -10 1896.76 158.107 4
 5 3 10 1679.86 138.824 7
 -5 3 -10 1465.74 167.628 3
 -5 -3 10 2127.83 189.076 8
 -5 3 -10 1870.01 152.408 5
 5 -3 -11 7015.9 298.011 4
 5 -3 -11 5610.8 278.789 3
 -5 -3 11 7445.41 355.689 8
 -5 -3 11 7355.59 503.77 2
 5 3 11 6478.59 290.357 8
 -5 3 -11 5799.85 317.49 3
 -5 -3 11 6889.37 346.837 1
 5 3 11 6081.18 294.965 1
 -5 3 -11 4604.21 233.406 5
 -5 3 -11 6754.43 280.762 6
 5 3 11 6294.42 263.754 7
 -5 -3 12 381.357 93.9464 8
 5 3 12 598.938 94.715 8
 5 -3 -12 367.743 83.43 6
 -5 3 -12 358.991 78.6626 6
 5 -3 -12 372.431 80.0761 4
 -5 -3 12 298.035 88.2889 1
 5 3 12 282.22 77.5808 1
 -5 3 -12 354.146 100.421 3
 5 -3 -12 283.33 75.2968 3
 -5 -3 12 329.72 131.548 2
 -5 -3 13 2167.35 203.517 1
 -5 3 -13 2248.36 173.394 6
 -5 -3 13 2328.31 290.004 2
 5 3 13 2211.64 172.845 8
 5 -3 -13 2250.72 175.32 3
 5 -3 -13 2153.15 170.486 4
 5 3 13 2358.39 193.117 1
 5 3 13 2354.96 168.882 7
 -5 3 -13 2617.25 195.182 5
 5 -3 -14 1118.82 126.872 3
 5 3 14 1185.48 131.059 8
 5 3 14 1118.6 124.312 7
 5 3 14 1052.04 133.773 1
 -5 3 -15 196.804 63.234 6
 5 -3 -15 228.844 63.7873 4
 -5 3 -15 318.703 81.2079 5
 -5 -3 15 236.711 113.125 2
 -5 -4 -14 598.214 109.004 5
 -5 4 14 556.526 146.167 2
 -5 -4 -14 736.089 116.871 3
 5 -4 14 500.926 101.029 1
 5 -4 14 458.655 92.9796 7
 -5 4 14 510.975 82.2012 8
 5 4 -14 394.666 79.1484 4
 5 4 -14 662.943 97.0709 6
 -5 -4 -13 2790.37 217.938 5
 -5 4 13 2687.94 294.181 2
 -5 4 13 2766.94 179.524 8
 5 -4 13 2288.82 189.76 1
 5 -4 13 2720.97 201.548 7
 5 4 -12 909.045 112.508 4
 5 -4 12 1010.35 127.377 1
 5 4 -12 1363.72 133.098 6
 -5 -4 -12 1150.69 143.124 5
 -5 -4 -12 1213.87 143.26 3
 -5 4 12 988.506 110.73 8
 -5 -4 -11 9427.31 383.461 5
 -5 4 11 9040.42 315.514 8
 -5 -4 -11 9070.61 372.937 3
 5 -4 11 9566.35 364.447 7
 5 -4 11 10098.2 385.285 1
 5 -4 11 8113.03 317.46 4
 -5 -4 -11 7482.16 328.684 2
 5 4 -10 1208.67 133.204 6
 -5 -4 -10 1481.74 159.138 5
 -5 4 10 1643.16 140.636 8
 -5 -4 -10 1168.05 139.181 2
 5 -4 10 1902.45 172.483 7
 -5 -4 -10 1400.72 155.507 3
 5 -4 10 1450.84 164.655 1
 5 -4 10 1650.84 143.299 4
 -5 -4 -9 18702.3 520.24 5
 5 -4 9 16995.4 495.133 1
 5 -4 9 16831.3 464.293 7
 -5 -4 -9 18756.7 533.178 2
 5 -4 8 3827.58 231.868 1
 5 4 -8 4016.39 223.85 6
 -5 -4 -8 4395.7 277.879 3
 -5 -4 -8 4020.56 237.366 5
 5 -4 8 4265.19 229.501 4
 -5 -4 -8 3445.27 224.92 2
 -5 4 8 3977.49 203.74 8
 -5 -4 -7 18954.1 551.746 3
 5 -4 7 17340.6 507.663 1
 5 4 -7 16841 422.488 4
 5 4 -7 17038.4 436.334 6
 -5 -4 -7 20453.9 535.996 2
 -5 4 7 20741.1 460.473 8
 5 -4 7 20704.6 486.65 4
 5 -4 6 8184.76 302.101 7
 5 4 -6 9314.77 302.66 4
 -5 -4 -6 7900.02 298.106 5
 5 -4 6 9687.73 324.261 4
 -5 -4 -6 9536.96 363.136 2
 5 4 -6 8533.47 322.26 6
 -5 4 6 8842.13 302.43 8
 -5 -4 -5 15404.3 466.601 2
 5 4 -5 12933.2 376.018 6
 -5 -4 -5 14175.5 464.237 3
 -5 4 5 14869.1 384.41 8
 5 4 -5 15179.3 375.038 4
 5 -4 5 12771.7 340.927 7
 5 -4 5 14699.9 389.196 4
 -5 -4 -5 13019.7 358.778 5
 5 -4 5 10998.3 331.518 1
 -5 4 5 14697.5 597.458 2
 -5 -4 -4 34127.8 699.347 2
 5 -4 4 39152.4 450.973 1
 -5 -4 -4 34198.4 741.287 3
 -5 4 4 34180 562.058 8
 5 4 -4 28183.1 505.007 4
 5 -4 4 30610.4 547.787 4
 5 4 -4 36837.6 593.33 6
 -5 -4 -4 29689.2 529.242 5
 5 -4 4 27157.7 475.397 7
 -5 4 4 30873.1 818.972 2
 -5 -4 -3 14983.5 469.155 2
 5 4 -3 17535.6 373.511 4
 5 -4 3 14003.1 311.754 7
 5 -4 3 23137.3 487.704 4
 5 -4 3 13406.1 254.166 1
 -5 4 3 17358.6 409.777 8
 -5 -4 -3 20368 402.133 5
 -5 4 3 15722.2 564.926 2
 -5 -4 -3 12756 447.065 3
 5 4 -3 13137.2 351.353 6
 -5 4 2 50953.5 963.5 2
 5 -4 2 51247.4 487.044 1
 -5 -4 -2 51089.6 854.308 2
 5 4 -2 49875.6 749.244 7
 5 -4 2 51591.1 716.345 4
 5 4 -2 53402.4 631.49 4
 -5 4 1 11692.7 334.264 8
 -5 4 1 11162.3 326.684 5
 5 -4 1 10759.3 327.088 4
 5 -4 1 10400.6 227.571 7
 5 4 -1 10970.9 348.66 7
 -5 -4 -1 11516.2 428.794 2
 5 4 -1 10600.8 265.471 4
 5 4 -1 10674.1 295.126 6
 5 4 0 37590.2 557.558 6
 5 4 0 41564.2 669.564 7
 -5 -4 0 39727.4 468.692 5
 -5 4 0 39089.8 630.715 2
 -5 -4 0 41762.4 788.396 2
 -5 4 0 44655 652.911 5
 -5 4 0 48022 678.009 8
 5 -4 0 30956.5 362.006 7
 5 -4 -1 10420.7 304.065 3
 5 4 1 10130.2 292.146 6
 5 4 1 9444.3 226.963 4
 5 -4 -1 12567.1 344.54 4
 5 4 1 11489.2 356.082 7
 5 -4 -1 9109.65 307.374 6
 -5 4 -1 10545.4 310.928 8
 -5 -4 1 11630.1 409.604 8
 -5 4 -1 10308.7 313.197 5
 -5 -4 1 9957.96 223.609 5
 -5 -4 1 11480.8 430.113 1
 -5 -4 1 10471.7 420.807 2
 -5 -4 2 57355.5 1031.7 2
 5 -4 -2 55639.4 744.258 4
 -5 4 -2 49993.4 677.053 5
 -5 -4 2 51754.8 849.548 8
 -5 4 -2 54274.9 705.248 8
 -5 -4 2 44451.4 831.211 1
 5 4 2 44529 580.275 6
 5 4 2 51992.5 747.816 7
 5 -4 -2 51579.2 694.975 3
 5 -4 -3 14961.8 376.893 3
 -5 4 -3 15040.5 375.025 5
 -5 -4 3 13651.8 467.052 1
 5 4 3 14639.9 383.882 7
 -5 -4 3 14673.7 535.341 2
 5 -4 -3 15962.4 402.333 4
 5 -4 -4 27110 512.263 3
 -5 4 -4 26697.4 520.938 5
 5 -4 -4 25458.3 536.67 6
 -5 -4 4 27965 645.848 8
 -5 -4 4 28956.6 686.712 1
 5 4 4 30668.4 567.661 7
 -5 -4 4 28959.2 797.856 2
 5 -4 -4 28442 559.754 4
 5 -4 -5 14869.9 385.45 3
 -5 4 -5 14364 395.902 5
 5 -4 -5 20594.8 513.047 6
 -5 -4 5 14106.2 452.131 8
 -5 -4 5 15760.3 509.879 1
 5 4 5 15054.3 398.587 7
 -5 -4 5 16219.3 631.179 2
 5 -4 -5 9551.5 330.42 4
 5 4 6 7826.17 293.185 7
 -5 -4 6 7103.15 327.295 8
 -5 4 -6 7220.9 281.82 5
 5 -4 -6 7457.57 281.754 3
 -5 -4 6 7191.14 342.737 1
 -5 -4 7 18942.7 557.127 1
 5 -4 -7 20671 484.879 3
 5 -4 -7 18454.9 474.085 6
 5 -4 -7 20984.7 492.31 4
 5 4 7 20804.5 461.23 7
 -5 4 -7 16431.2 428.36 5
 -5 -4 7 20843.4 580.617 8
 -5 -4 7 17824.4 772.047 2
 5 -4 -8 2732.18 183.05 3
 5 -4 -8 2577.69 185.347 6
 5 4 8 3058.47 194.389 7
 -5 4 -8 2793.02 192.352 5
 -5 -4 8 2364.98 272.071 2
 -5 4 -8 2909.58 251.953 3
 -5 -4 8 2744.85 216.293 8
 -5 -4 8 2963.68 229.069 1
 5 -4 -9 20513.7 535.609 6
 5 -4 -9 23562.5 543.114 4
 5 4 9 19425.2 349.438 1
 -5 -4 9 19889.7 582.559 1
 -5 -4 9 21505.7 808.398 2
 -5 4 -9 22324.8 653.996 3
 -5 -4 9 18255 573.877 8
 -5 -4 10 1178.19 152.284 8
 5 -4 -10 1032.97 121.347 3
 5 -4 -10 1057.15 125.675 4
 5 4 10 1193.43 117.553 7
 -5 -4 10 1153.42 206.255 2
 -5 4 -10 1077.27 148.883 3
 -5 -4 10 1201.63 152.654 1
 -5 4 -10 1172.08 123.293 5
 5 -4 -10 1224.1 140.241 6
 5 -4 -11 8491.94 341.798 3
 -5 4 -11 9582.56 338.51 6
 -5 4 -11 8298.47 307.036 5
 -5 -4 11 9680.24 414.564 1
 5 -4 -11 12002.3 404.938 4
 -5 4 -11 10004.2 425.632 3
 5 4 11 8750.49 349.678 1
 -5 -4 11 10142.5 575.251 2
 5 4 11 9469.9 326.596 7
 5 4 11 10561.7 371.043 8
 5 4 12 958.175 129.931 1
 -5 4 -12 799.89 109.707 5
 -5 4 -12 966.94 115.185 6
 5 4 12 829.441 102.868 7
 5 4 13 3460.29 213.261 8
 -5 -4 13 3261.45 337.811 2
 -5 -4 13 3100.39 239.176 1
 5 4 13 2767.37 181.12 7
 -5 4 -13 3520.12 211.261 6
 5 -4 -13 3052.49 199.437 3
 5 -4 -13 3237.88 220.442 4
 5 4 14 438.709 85.0567 8
 -5 -4 14 472.899 142.403 2
 -5 -4 14 433.395 104.862 1
 5 -4 -14 502.615 92.9722 4
 5 -4 -14 503.629 87.9066 3
 5 4 14 454.403 81.2666 7
 -5 4 -14 487.032 86.0652 6
 -5 4 -14 460.679 90.3211 5
 5 4 15 1777.81 153.316 8
 -5 -4 15 1663.97 249.603 2
 5 -4 -15 2198.87 180.353 4
 5 -4 -15 1459.5 146.639 3
 5 -5 14 41.6789 63.1564 1
 -5 5 14 137.703 50.7953 8
 5 5 -14 104.714 51.5484 4
 -5 -5 -14 143.143 64.5097 5
 5 5 -14 168.057 65.1394 6
 -5 -5 -14 92.7795 61.4988 3
 -5 5 14 79.3465 84.5698 2
 -5 -5 -13 2749.45 225.972 5
 5 5 -13 2676.92 182.86 6
 -5 5 13 2644.49 173.175 8
 5 -5 13 3475.67 250.569 7
 5 -5 13 2663.07 210.346 1
 5 5 -13 2168.67 167.671 4
 -5 -5 -13 3261.99 227.537 3
 -5 5 12 1415.49 132.396 8
 5 -5 12 1396.95 152.712 1
 -5 -5 -12 1631.63 169.568 3
 -5 -5 -12 1582.32 174.785 5
 5 5 -12 1883.58 156.025 6
 5 -5 12 1424.19 163.543 7
 -5 -5 -11 4338.49 246.951 2
 5 5 -11 5016.12 254.712 6
 -5 -5 -11 4772.74 287.31 5
 5 -5 11 6895.94 321.758 7
 5 -5 11 6470.76 309.123 1
 -5 5 11 5151.74 238.989 8
 5 -5 11 5390.77 258.548 4
 -5 -5 -11 5761.63 300.704 3
 -5 -5 -10 8187.74 356.881 2
 5 -5 10 7064.23 328.874 1
 5 5 -10 7860.51 315.05 6
 -5 -5 -10 8649.76 368.105 3
 -5 -5 -10 9525.65 395.549 5
 5 -5 10 7773.68 354.481 7
 5 -5 10 8286.99 313.957 4
 -5 5 10 8809.89 306.465 8
 -5 5 9 11063.3 345.711 8
 -5 -5 -9 10915.4 409.215 3
 -5 -5 -9 11761.5 425.103 5
 -5 -5 -9 11818.3 426.797 2
 5 5 -9 10741 363.55 6
 5 -5 9 12533 387.592 4
 5 -5 9 11946.4 409.035 7
 -5 5 8 11660.5 350.959 8
 5 5 -8 13603.5 402.691 6
 -5 -5 -8 13213.1 466.473 3
 -5 -5 -8 12476.3 431.363 5
 -5 -5 -8 11580.8 403.724 2
 5 -5 8 12070.7 382.928 4
 5 -5 8 11667.5 416.761 1
 5 -5 7 15302 434.972 4
 -5 -5 -7 17904.8 506.648 2
 -5 5 7 15138.5 398.377 8
 5 -5 7 14782.2 457.293 1
 5 -5 7 18118.5 464.367 7
 5 5 -7 15955.1 444.829 6
 -5 -5 -7 16518 527.026 3
 -5 -5 -6 32163.6 679.638 2
 5 5 -6 28464 565.058 6
 5 -5 6 29891.8 575.919 7
 -5 -5 -6 33981 734.27 3
 -5 5 6 27968.7 543.209 8
 -5 -5 -6 31095.9 627.556 5
 5 -5 6 31616 648.893 1
 5 5 -6 31437.9 563.51 4
 -5 -5 -5 36357.9 716.833 2
 5 -5 5 32374.6 656.342 1
 5 -5 5 40122.2 639.093 7
 5 5 -5 32848.9 576.322 4
 5 5 -5 41044.5 662.624 6
 -5 -5 -5 44212.9 841.857 3
 -5 -5 -5 32631.2 620.47 5
 -5 5 5 35901.1 598.593 8
 5 -5 5 30053.4 577.624 4
 -5 5 4 51815 1149.88 2
 5 5 -4 61997.4 743.675 4
 5 -5 4 49664.4 662.188 7
 5 -5 4 49065.1 774.703 1
 5 -5 4 56964 771.618 4
 5 5 -4 51399 761.943 6
 -5 -5 -4 52309.9 732.11 5
 -5 5 4 53402.9 724.292 8
 -5 -5 -4 64353.4 959.121 2
 -5 5 3 32337.1 829.471 2
 -5 -5 -3 34344.8 706.65 2
 5 -5 3 29937.8 565.864 4
 5 5 -3 33468 530.18 4
 -5 5 3 35039.7 578.887 8
 -5 -5 -3 36452.8 728.595 3
 5 5 -3 33087.7 564.026 6
 5 -5 3 34115.7 543.431 7
 -5 5 2 32921.5 791.71 2
 -5 5 2 34807.3 604.418 5
 5 -5 2 32601.3 584.742 4
 5 5 -2 32182.3 561.947 6
 5 5 -2 31993.8 491.694 4
 -5 5 2 35352.3 588.44 8
 -5 -5 -2 31206.2 466.644 5
 5 -5 2 36192.3 429.676 1
 5 5 -2 35992.4 658.37 7
 5 5 -1 67812.7 903.769 7
 -5 -5 -1 60709.2 934.428 3
 -5 5 1 62037.5 801.876 5
 5 5 -1 62974.9 656.794 4
 5 -5 1 61248.9 521.372 1
 -5 5 1 64199.7 795.36 8
 -5 -5 -1 69620 1023.47 2
 -5 -5 0 28554.5 683.585 2
 5 5 0 34472.6 632.233 7
 -5 5 0 35211.7 594.901 5
 5 -5 0 31291.9 551.12 4
 -5 5 0 23981.8 564.496 8
 -5 -5 0 32335.3 668.979 3
 5 -5 0 28053.7 326.055 1
 5 5 0 30181.5 500.619 6
 -5 -5 1 62249.3 978.591 3
 5 -5 -1 59103.1 744.07 3
 -5 -5 1 59864.3 1048.77 1
 -5 -5 1 69422.1 1095.71 2
 5 5 1 70198.3 914.632 7
 -5 5 -1 63022.6 803.332 5
 -5 5 -1 67669.4 795.792 8
 5 -5 -1 72404.8 869.08 4
 5 5 1 70882.2 795.022 6
 5 5 2 39231.7 669.498 7
 5 -5 -2 42123.5 687.328 6
 5 5 2 35345.7 508.635 6
 -5 -5 2 35598.7 817.491 2
 -5 5 -2 36858.3 600.793 5
 -5 -5 2 41663 824.932 1
 -5 5 -2 32693.2 551.524 8
 -5 -5 2 35541.7 748.813 8
 5 -5 -2 40220.6 633.43 3
 5 -5 -2 35894.1 610.835 4
 5 5 3 37924.8 629.455 7
 5 -5 -3 27713.9 545.866 6
 5 -5 -3 38235.2 652.165 4
 -5 -5 3 33262.8 730.508 8
 -5 -5 3 35948.7 782.32 1
 5 -5 -3 35997.6 600.103 3
 -5 5 -3 31306.7 570.156 5
 -5 -5 3 42567.2 935.709 2
 -5 -5 4 52159.8 890.323 8
 -5 -5 4 63748.4 1044.78 1
 -5 -5 4 58091.1 1112.65 2
 5 -5 -4 58663.5 822.283 4
 5 -5 -4 57410.1 758.331 3
 -5 5 -4 58478.7 799.895 5
 5 5 4 61669.4 825.43 7
 -5 -5 5 41255.2 861.083 1
 5 -5 -5 40399.3 651.437 3
 -5 -5 5 40370.5 827.159 8
 5 5 5 43205.3 684.263 7
 5 5 6 32427.6 619.042 7
 5 -5 -6 31604.3 658.095 4
 5 -5 -6 32628.8 604.089 3
 -5 -5 6 30822.4 734.319 8
 -5 -5 6 31236.6 898.076 2
 -5 -5 7 20390.9 592.954 1
 5 5 7 17863.5 444.65 7
 5 -5 -7 17724.8 458.895 3
 5 -5 -7 23614.6 599.621 6
 5 -5 -7 19901.8 497.94 4
 -5 5 -7 19256.5 471.18 5
 -5 -5 7 15783.7 687.628 2
 5 -5 -8 13792.3 416.083 4
 -5 -5 8 9262.2 588.129 2
 5 5 8 12432.8 375.869 7
 -5 5 -8 13774.9 421.133 5
 -5 -5 8 10941.6 446.368 8
 -5 5 -8 11431.3 496.326 3
 -5 -5 8 12438.4 468.047 1
 5 -5 -8 12442.8 386.498 3
 5 -5 -8 10382.8 398.665 6
 5 -5 -9 11883.1 382.655 3
 -5 -5 9 11975.9 464.839 1
 5 5 9 13196.6 293.388 1
 -5 5 -9 12395 502.876 3
 5 -5 -10 7278.93 318.681 3
 -5 5 -10 7196.09 295.548 5
 5 -5 -10 8063.63 331.675 4
 -5 -5 10 7908.97 509.922 2
 5 5 10 8014.73 296.671 7
 5 5 10 8079.51 235.597 1
 -5 -5 10 8638.11 395.688 1
 -5 5 -11 5056.7 250.426 6
 5 -5 -11 4742.51 252.136 3
 5 -5 -11 5103.99 267.49 4
 -5 -5 11 5108.17 302.791 1
 5 5 11 4576.57 259.751 1
 5 5 11 5343.57 244.779 7
 -5 -5 12 1864.62 285.995 2
 5 -5 -12 1522.56 145.251 3
 5 5 12 1420.88 132.349 7
 5 5 12 1518.13 145.926 8
 5 -5 -12 1873.6 166.612 4
 -5 5 -12 1534.62 146.715 6
 -5 -5 12 1690.2 180.291 1
 -5 5 -12 1638.18 151.557 5
 -5 -5 13 2897.68 330.193 2
 5 -5 -13 2419.63 189.868 4
 -5 -5 13 2626.33 221.553 1
 5 -5 -13 2714.91 190.278 3
 -5 5 -13 2499.58 192.536 5
 -5 5 -13 2688.51 188.237 6
 5 5 13 2304.31 165.499 7
 5 5 13 2570.96 189.776 8
 -5 -5 14 74.7726 87.5286 2
 -5 5 -14 50.035 49.8911 5
 5 -5 -14 99.6015 57.6796 3
 5 -5 -14 97.4164 57.4949 4
 5 5 14 60.9941 48.2226 8
 5 5 14 79.6728 45.0449 7
 -5 -5 14 92.7862 65.2068 1
 5 6 -14 3434.96 211.35 6
 -5 6 14 2038.23 264.341 2
 -5 6 14 2571.79 169.386 8
 5 6 -14 2477.59 178.51 4
 -5 -6 -14 2932.19 215.371 3
 5 -6 14 2960.27 218.264 1
 5 -6 13 2077.43 199.723 1
 -5 6 13 2560.84 176.721 8
 5 6 -13 3695.69 212.86 6
 -5 -6 -13 3149.25 220.68 3
 5 6 -13 2135.28 165.789 4
 -5 6 12 4324.23 217.098 8
 -5 -6 -12 4671.83 273.942 3
 5 6 -12 3977.86 225.617 6
 5 -6 12 3755.12 253.469 1
 5 6 -11 8976.45 332.434 6
 -5 -6 -11 9286.29 392.538 3
 5 -6 11 10358.4 447.119 7
 5 -6 11 7436.04 303.831 4
 -5 -6 -11 7295.49 368.706 5
 -5 6 11 7423.52 284.398 8
 -5 -6 -11 8275.95 344.524 2
 -5 -6 -10 5286.56 284.771 2
 5 -6 10 4929.18 244.379 4
 5 6 -10 4872.17 247.7 6
 -5 -6 -10 5204.68 305.75 5
 5 -6 10 4471.54 285.807 7
 -5 6 10 4607.29 225.838 8
 -5 -6 -10 4522.99 267.237 3
 5 -6 9 10303.7 395.429 1
 5 -6 9 9843.91 342.961 4
 5 6 -9 11912.4 385.713 6
 -5 6 9 10384.6 336.43 8
 5 -6 9 9605.52 389.147 7
 -5 -6 -9 11499.4 419.3 2
 -5 -6 -8 4427.15 272.274 5
 5 -6 8 4317.43 235.911 4
 5 -6 8 3741.57 239.072 7
 5 -6 8 4273.32 258.42 1
 -5 -6 -8 4378.43 260.929 2
 -5 -6 -7 17885.5 533.888 5
 5 6 -7 18147.6 471.703 6
 -5 6 7 17465.8 436.595 8
 5 -6 7 18734.6 487.587 4
 5 -6 6 1529.8 153.339 1
 5 6 -6 1602.56 140.325 6
 -5 -6 -6 1651.25 173.622 3
 5 -6 6 1604.36 142.701 4
 -5 -6 -6 1737.8 168.85 2
 -5 -6 -6 2265.89 178.414 5
 5 -6 6 1080.77 125.985 7
 -5 6 6 2231.2 154.584 8
 -5 -6 -5 28840 650.751 2
 -5 6 5 27159.8 532.679 8
 -5 -6 -5 23732 553.375 5
 5 -6 5 25991.3 610.088 1
 5 -6 5 25967.3 549.049 4
 5 6 -5 25443.6 519.611 4
 5 6 -4 1169.15 105.792 4
 -5 6 4 1130.01 113.423 8
 5 6 -4 1256.18 131.265 6
 -5 6 4 912.78 165.892 2
 -5 -6 -4 899.942 105.05 5
 5 -6 4 1072.13 118.205 4
 5 -6 4 1050.29 122.161 1
 -5 -6 -4 1400.02 156.811 2
 -5 -6 -4 879.252 126.08 3
 -5 6 3 11429.2 337.421 8
 -5 -6 -3 10237.1 383.187 3
 5 -6 3 10659.8 359.11 1
 -5 6 3 10851 493.964 2
 5 6 -2 5173.17 234.315 6
 5 -6 2 5044.98 235.021 4
 -5 -6 -2 5933.07 311.263 2
 -5 -6 -2 4812.54 260.296 3
 5 6 -2 5441.77 270.598 7
 -5 6 2 6027.37 253.879 8
 -5 6 2 5402.27 243.763 5
 5 -6 2 5671.6 256.911 1
 -5 6 1 3231.78 193.845 5
 -5 -6 -1 2942.01 202.131 3
 5 -6 1 2580.11 165.688 1
 5 -6 1 2749.09 180.442 4
 5 6 -1 3007.96 200.219 7
 -5 -6 -1 3027.67 223.42 2
 5 6 0 8035.76 319.004 7
 5 -6 0 6898.5 285.169 4
 -5 6 0 8426.56 306.711 5
 5 6 0 7842.27 260.361 6
 -5 -6 0 7418.24 371.537 2
 -5 -6 0 6542.15 272.574 3
 -5 6 0 7456.77 274.466 8
 5 6 1 2275.03 175.754 7
 5 6 1 2502.19 154.02 6
 5 -6 -1 2040.45 147.475 3
 -5 6 -1 1903.53 155.175 5
 -5 -6 1 2299.76 203.729 2
 -5 -6 1 1828.79 200.756 1
 -5 -6 2 3875.06 271.855 1
 -5 -6 2 4544.45 297.732 2
 5 6 2 4414.67 234.016 7
 5 -6 -2 4089.06 212.522 3
 5 -6 -3 8025.09 306.354 4
 -5 6 -3 8725.8 306.814 5
 5 -6 -4 1045.89 112.27 3
 5 -6 -4 1452.61 144.213 6
 -5 -6 4 1135.6 161.013 1
 5 6 4 1265.59 128.294 7
 -5 6 -5 22865.4 513.777 5
 -5 -6 5 23749.6 658.613 8
 -5 -6 5 23312.5 676.477 1
 5 -6 -5 21214.2 511.241 6
 -5 -6 5 23356.6 747.989 2
 5 -6 -5 23027.8 503.154 3
 5 -6 -6 605.888 93.4252 3
 -5 -6 6 629.406 117.746 8
 -5 6 -6 587.551 91.7158 5
 5 6 6 985.178 112.772 7
 -5 -6 6 585.503 124.03 1
 5 -6 -6 790.794 110.97 6
 5 -6 -6 570.957 98.5556 4
 -5 -6 6 611.859 138.377 2
 5 6 7 16809 435.067 7
 5 -6 -7 17199.8 491.785 4
 -5 -6 7 15837 664.618 2
 5 -6 -7 17378.2 460.232 3
 -5 6 -8 4418.45 249.821 5
 -5 -6 8 5052.34 306.741 1
 5 -6 -8 4963.94 248.311 3
 -5 6 -8 5571.55 357.153 3
 -5 -6 8 4802.74 374.194 2
 5 6 9 11784.2 367.362 7
 5 6 9 10797 286.424 1
 -5 -6 9 10223.5 563.308 2
 5 -6 -9 11146 370.508 3
 5 -6 -9 10477.2 403.486 4
 -5 -6 9 11143.2 446.16 1
 -5 -6 10 6125.26 343.641 1
 -5 6 -10 5755.47 269.911 6
 5 6 10 5699.1 254.821 7
 -5 6 -10 5009.23 250.166 5
 5 -6 -10 6023.74 277.13 3
 5 -6 -10 6902.35 327.499 4
 -5 -6 10 5708.49 457.786 2
 5 -6 -11 8018.05 320.201 3
 -5 -6 11 7660.91 381.357 1
 -5 6 -11 7245.65 310.437 6
 5 6 11 7426.29 290.994 7
 5 -6 -11 8351.1 358.802 4
 5 6 11 7906.92 324.46 8
 -5 6 -12 4176.46 231.702 6
 5 6 12 4265.31 237.851 8
 -5 6 -12 4023.16 235.782 5
 5 6 12 3475.78 202.451 7
 5 -6 -12 3442.13 235.339 4
 -5 -6 12 3837 366.883 2
 5 -6 -13 2496.28 181.965 3
 -5 6 -13 2274.18 174.842 6
 5 -6 -13 2222.4 191.761 4
 5 6 13 2371.52 171.079 7
 5 6 13 2357.98 178.193 8
 -5 -6 13 2434.21 216.889 1
 5 -6 -14 2515.56 181.025 3
 -5 -6 14 2370.65 215.794 1
 -5 6 -14 2594.29 200.069 5
 5 6 14 2489.65 182.122 8
 5 6 14 2614.39 181.328 7
 5 7 -13 1591.8 150.529 6
 -5 7 13 2077.23 154.301 8
 5 7 -13 1475.66 141.948 4
 5 -7 13 1539.3 164.648 1
 -5 -7 -13 1981.64 183.172 3
 5 -7 12 5668.16 306.239 1
 -5 -7 -11 2192.77 200.846 5
 -5 7 11 2234.22 159.212 8
 5 -7 11 1899.76 183.099 1
 -5 -7 -11 2179.67 193.465 3
 5 -7 11 2164.25 169.688 4
 -5 -7 -11 1844.78 166.281 2
 -5 -7 -10 9631.57 382.063 2
 -5 -7 -10 9541.93 426.837 5
 5 -7 10 8766.51 331.077 4
 5 -7 10 9251.1 391.968 1
 5 -7 9 2334.67 170.136 4
 -5 -7 -9 2490.61 206.64 2
 -5 -7 -9 2721.65 214.869 3
 -5 7 9 2370.89 165.26 8
 -5 -7 -9 2230.29 204.882 5
 5 7 -9 2186.86 170.996 6
 5 -7 9 2325.68 197.526 1
 5 -7 8 18715.1 487.08 4
 -5 7 8 15568.5 416.066 8
 -5 -7 -8 15738.8 528.194 5
 -5 -7 -8 15977.7 501.708 3
 5 -7 8 16905.9 523.582 1
 5 7 -8 15114.8 445.372 6
 -5 -7 -8 18548.3 534.698 2
 5 -7 7 164.795 67.177 1
 -5 -7 -7 173.315 67.6649 2
 5 7 -7 104.037 62.4108 6
 -5 7 7 141.086 54.4593 8
 -5 -7 -7 77.6228 62.6712 3
 5 -7 7 233.896 66.6574 4
 5 -7 6 22922.3 591.111 1
 5 -7 6 28271 598.863 4
 -5 -7 -6 23840 624.985 2
 -5 7 6 23287.3 501.678 8
 5 7 -6 26061.4 570.949 6
 -5 -7 -6 27651.2 659.757 3
 5 -7 5 1996.33 168.275 4
 -5 -7 -5 1689.59 169.266 2
 -5 7 5 1530.26 130.206 8
 -5 -7 -5 1527.95 154.831 3
 -5 -7 -4 31816.9 715.138 2
 -5 -7 -4 31049.3 689.301 3
 -5 -7 -3 2205.79 185.011 3
 5 7 -3 1922.09 149.348 6
 5 -7 3 1815.28 148.924 4
 -5 -7 -3 1697.45 184.467 2
 -5 7 3 2188.02 153.896 8
 5 -7 3 1477.96 141.25 1
 5 7 -3 2092.27 177.584 7
 -5 7 2 26535 540.259 8
 5 7 -2 28836.5 566.257 6
 -5 -7 -2 27585.5 666.032 2
 5 7 -2 26758.5 607.765 7
 -5 -7 -2 28337 630.52 3
 5 7 -1 491.33 75.5554 6
 5 7 -1 504.329 88.6575 7
 -5 -7 -1 484.342 102.371 2
 -5 7 1 524.384 86.2406 5
 -5 7 1 493.397 81.9921 8
 -5 -7 0 29670 714.961 2
 5 7 0 30274.4 629.513 7
 -5 -7 2 26131.6 714.286 2
 -5 -7 2 28070.8 746.988 1
 -5 -7 3 1952.48 207.194 1
 5 7 3 1797.07 150.375 7
 5 -7 -3 2378.23 167.527 3
 -5 7 -3 2232.46 160.551 5
 -5 -7 3 1939.68 208.53 2
 5 7 4 31914.3 625.686 7
 -5 -7 4 31620.6 836.209 2
 -5 -7 4 32592.4 817.438 1
 5 -7 -4 28714.2 601.069 4
 -5 7 -4 29757.3 598.048 5
 5 -7 -4 30623.7 588.656 3
 5 7 5 921.867 113.025 7
 -5 -7 5 1543.21 200.418 2
 -5 -7 5 1166.89 171.761 1
 5 -7 -5 1205.64 130.595 4
 -5 7 -5 1300.14 133.018 5
 5 -7 -5 1260.15 126.021 3
 5 7 6 24766.8 567.022 7
 -5 -7 6 26324.1 733.653 1
 -5 -7 6 24972.2 806.049 2
 5 -7 -6 24577.6 600.03 4
 5 -7 -6 25830.9 553.84 3
 -5 7 -6 24581.8 560.302 5
 5 7 7 122.556 53.0263 7
 -5 -7 7 110.739 80.7432 1
 5 7 7 281.071 82.8923 1
 5 -7 -7 253.212 73.95 3
 -5 -7 7 26.6329 77.7719 2
 -5 7 -7 39.2231 45.5885 5
 5 -7 -7 22.5721 49.5118 4
 5 7 8 19891.8 486.555 7
 -5 -7 8 19385.1 611.442 1
 5 7 9 2363.13 170.545 7
 -5 -7 9 2240.75 212.947 1
 -5 -7 9 2031.26 255.58 2
 5 -7 -9 2281.35 176.198 3
 5 -7 -10 10044.2 361.154 3
 -5 -7 10 9044.73 415.453 1
 -5 7 -10 9308.52 347.068 6
 -5 7 -10 10106.7 364.074 5
 -5 -7 10 9066.09 543.926 2
 5 7 10 10002.4 364.103 8
 5 7 10 9339.47 333.284 7
 5 -7 -11 2407.55 188.241 3
 -5 -7 11 1877.15 200.801 1
 -5 7 -11 2689.4 189.833 6
 -5 7 -11 1942.31 158.091 5
 5 7 11 2024.54 158.276 7
 -5 -7 11 2026.99 268.095 2
 5 7 11 1999.81 166.744 8
 5 7 12 4218.47 225.311 7
 -5 7 -12 3863.52 235.452 5
 -5 7 -13 2116.56 169.642 6
 5 -7 -13 1714.65 151.852 3
 5 7 13 2011.43 176.804 8
 -5 -7 13 1942.44 194.539 1
 5 7 13 1899.81 156.53 7
 5 8 -12 3625.4 224.543 4
 5 -8 12 4227.2 268.178 1
 -5 -8 -12 4971.51 283.685 3
 -5 8 12 5139.51 242.087 8
 5 8 -12 5672.96 267.115 6
 5 8 -11 3055.8 207.202 6
 5 -8 11 3259.47 240.523 1
 5 -8 11 3155.1 202.654 4
 -5 -8 -11 3380.49 240.31 3
 -5 8 11 3176.65 188.52 8
 -5 -8 -11 3022.03 217.492 2
 5 8 -10 7142.18 309.841 6
 5 -8 10 6847.26 350.121 1
 -5 8 10 5804.37 254.749 8
 -5 -8 -10 6673.46 312.435 2
 -5 -8 -10 6274.64 327.735 3
 -5 -8 -9 7236.47 352.77 3
 5 8 -9 6463.27 301.45 6
 5 -8 9 6568.2 346.764 1
 -5 -8 -8 7601.92 349.838 2
 5 -8 8 6654.62 301.66 4
 -5 8 8 7099.48 286.338 8
 5 8 -8 7370.88 315.472 6
 5 -8 8 6914.8 351.801 1
 5 -8 7 4245.1 242.692 4
 -5 -8 -7 4416.16 263.772 2
 -5 8 7 4465.64 226.788 8
 -5 -8 -6 9492.8 393.223 3
 -5 8 6 8437.16 311.192 8
 5 8 -6 7488.25 317.098 6
 -5 -8 -6 9219.66 384.523 2
 5 -8 6 9876.7 359.539 4
 5 -8 6 6795.44 336.935 1
 -5 -8 -5 6298.54 315.147 3
 -5 8 5 7016.08 289.592 8
 5 -8 5 5396.78 292.019 1
 5 -8 5 4035.65 232.317 4
 5 8 -5 5435.47 275.863 6
 -5 -8 -4 351.116 90.0509 2
 -5 8 4 343.723 71.2384 8
 5 8 -4 339.358 77.3474 6
 5 8 -4 398.369 89.677 7
 5 8 -3 2742.59 207.587 7
 -5 -8 -3 2893.92 208.321 3
 5 -8 3 2449.43 176.502 4
 -5 -8 -3 2649.37 217.716 2
 -5 8 3 2750.62 178.577 8
 -5 8 3 2751.63 190.589 5
 5 8 -3 2671.26 182.303 6
 5 -8 2 456.74 87.0728 4
 5 8 -2 762.004 114.279 7
 -5 -8 -2 727.4 119.765 2
 -5 8 2 677.709 98.752 5
 5 8 -1 502.085 92.8402 7
 5 -8 1 412.23 84.7034 4
 -5 8 1 354.498 76.7691 5
 5 8 0 250.691 66.8961 7
 5 -8 0 228.737 66.4143 4
 -5 -8 0 251.018 89.5843 2
 -5 8 0 246.773 64.7136 5
 5 -8 -1 51.4939 43.3075 3
 -5 8 -1 64.618 48.025 5
 -5 -8 1 100.085 67.0191 2
 5 8 1 66.5553 52.2721 7
 -5 -8 2 320.444 101.366 2
 -5 -8 2 450.931 121.427 1
 -5 8 -2 435.051 82.4679 5
 5 8 2 457.984 86.5469 7
 5 -8 -2 318.277 71.8789 3
 5 -8 -2 314.666 74.9238 4
 5 -8 -3 2235.77 172.048 3
 -5 8 -3 2164.09 166.151 5
 5 8 3 2366.56 181.064 7
 -5 -8 3 2533.1 232.723 2
 -5 -8 4 508.314 118.467 2
 5 8 4 439.404 88.5989 7
 -5 8 -4 409.843 79.6511 5
 -5 -8 4 420.939 116.287 1
 -5 -8 5 6433.96 393.821 2
 5 8 5 6458.81 287.561 7
 -5 8 -5 6095.03 282.73 5
 5 -8 -5 6421.48 276.924 3
 -5 -8 5 7351.86 407.123 1
 -5 -8 6 8642.95 469.992 2
 5 8 6 8759.66 339.904 7
 5 -8 -6 8562.25 326.98 3
 -5 8 -6 8785.52 336.41 5
 5 -8 -6 9236.74 406.722 4
 -5 -8 6 8341.56 430.772 1
 5 8 7 5599.41 262.024 7
 5 -8 -7 5374.06 261.593 3
 -5 -8 7 4983.54 332.765 1
 5 -8 -8 8744.17 334.105 3
 5 -8 -8 9555.32 395.114 4
 -5 8 -8 9430.35 365.207 5
 5 8 8 9034 337.898 7
 -5 -8 8 8587.09 432.952 1
 -5 -8 9 4199.63 360.606 2
 -5 8 -9 4019.54 235.523 5
 -5 8 -10 6555.09 296.792 6
 -5 -8 10 7381.2 382.58 1
 5 -8 -10 6394.03 292.679 3
 5 8 10 7649.89 322.502 8
 5 8 10 6483.76 279.659 7
 -5 8 -11 3129.19 213.133 6
 -5 -8 11 3011.51 245.846 1
 5 -8 -11 3200.84 209.342 3
 5 8 11 2931.22 203.244 8
 5 8 11 2995.19 192.772 7
 -5 8 -12 5014.5 257.087 6
 5 8 12 4541.05 248.06 8
 -5 -8 12 5373.59 321.208 1
 5 8 12 5117.93 250.818 7
 5 -8 -12 4493.99 241.551 3
 -5 9 12 3222.01 193.478 8
 5 -9 12 2829.23 231.816 1
 -5 -9 -12 3605.05 246.905 3
 -5 9 11 1823.86 147.042 8
 5 -9 11 1528.21 173.045 1
 -5 -9 -11 1449.51 169.654 2
 -5 -9 -11 2000.56 188.254 3
 5 9 -11 1862.65 162.895 6
 -5 9 10 3691.91 208.327 8
 -5 -9 -10 3613.92 234.716 2
 -5 -9 -10 3917.12 262.599 3
 5 -9 10 3762.87 261.096 1
 5 -9 10 3968.96 232.68 4
 -5 -9 -9 4099.3 276.166 3
 -5 9 9 4472.19 229.897 8
 -5 -9 -9 4006.84 251.755 2
 5 -9 9 3749.63 262.936 1
 5 -9 9 3949.73 224.381 4
 -5 -9 -8 6114.02 317.272 2
 5 -9 8 6125.42 340.322 1
 -5 9 8 6183.71 273.032 8
 -5 -9 -8 6538.35 336.589 3
 -5 -9 -7 7994.26 354.976 2
 5 -9 7 7753.36 388.799 1
 -5 -9 -7 8722.94 390.914 3
 -5 9 7 8469.82 316.857 8
 5 9 -7 8314.67 335.85 6
 5 -9 6 5216.39 270.948 4
 -5 -9 -6 5229.55 293.115 2
 -5 9 6 5498.83 265.396 8
 5 -9 5 11814.9 400.101 4
 5 9 -5 8028.63 357.456 6
 -5 -9 -5 11254.4 441.802 2
 -5 9 5 8795.19 330.52 8
 -5 -9 -4 5660.58 313.865 2
 -5 -9 -3 10082.3 433.068 2
 -5 9 3 10692 386.941 5
 5 -9 2 5499.97 262.307 4
 -5 -9 -2 4715.2 291.979 2
 5 9 -2 5351.07 294.203 7
 -5 9 2 5507.63 273.696 5
 -5 -9 -1 13961 494.405 2
 5 9 -1 13103.6 452.831 7
 -5 9 0 1375.12 141.77 5
 5 9 0 1407.49 154.583 7
 -5 -9 0 1362.6 165.24 2
 5 -9 0 1602.39 162.153 4
 5 9 1 14378.8 461.798 7
 5 -9 -1 15578.1 453.837 4
 -5 -9 1 13852.2 546.301 2
 -5 9 -1 12951.7 412.824 5
 5 -9 -1 12373.3 386.738 3
 -5 -9 2 6565.92 365.065 2
 5 -9 -2 6937.79 315.775 4
 -5 -9 2 6985.46 408.698 1
 5 -9 -2 6817.7 288.656 3
 5 9 2 6288 302.227 7
 -5 9 -2 5767.66 276.409 5
 5 -9 -3 12912.3 404.653 3
 5 9 3 11525.1 409.576 7
 -5 -9 3 10389.5 485.299 1
 -5 -9 3 11003.8 504.505 2
 5 -9 -3 9416.66 379.588 4
 5 -9 -4 7452.87 323.088 4
 -5 9 -4 8045.65 330.243 5
 -5 -9 4 7114.97 407.412 2
 5 9 4 7057.24 317.235 7
 5 -9 -5 8788.17 331.676 3
 -5 9 -5 8344.82 343.886 5
 -5 -9 5 8926.71 458.02 1
 -5 -9 5 8518.78 456.428 2
 5 -9 -6 7508.43 350.148 4
 -5 -9 6 7030.93 400.862 1
 -5 9 -6 6615.48 302.515 5
 5 9 6 6370.64 295.936 7
 5 -9 -7 8066.56 323.448 3
 -5 -9 7 7592.43 463.308 2
 -5 -9 7 8652.07 453.003 1
 5 9 7 9147.29 341.953 7
 5 -9 -8 6190.09 281.462 3
 5 9 8 5395.37 274.946 7
 -5 -9 8 6389.16 375.791 1
 -5 9 -9 4223.47 244.561 6
 5 9 9 4033.47 232.124 7
 5 -9 -9 4632.91 246.563 3
 5 9 9 4274.76 246.207 8
 -5 -9 9 3914.68 292.678 1
 -5 9 -10 4265.16 246.488 6
 5 9 10 3897.59 224.516 7
 5 9 10 3984.51 237.208 8
 -5 -9 10 4432.78 305.04 1
 5 -9 -10 3790.74 225.087 3
 -5 9 -11 1912.56 162.897 6
 5 9 11 1983.08 165.208 8
 5 -9 -11 2013.58 163.609 3
 -5 -9 12 3823.01 283.136 1
 -5 9 -12 3056.68 207.706 6
 5 9 12 3530.07 217.777 8
 5 -9 -12 2854.94 192.463 3
 -5 10 11 4281.65 226.7 8
 -5 -10 -11 4026.47 266.356 3
 -5 -10 -10 2638.53 217.429 3
 5 -10 10 2035.36 169.484 4
 -5 10 10 2054.56 164.99 8
 5 10 -10 2168.4 187.617 6
 -5 -10 -10 2032.3 179.45 2
 -5 -10 -9 5380.2 311.32 3
 5 -10 9 5206.96 262.528 4
 -5 10 9 6167.77 275.961 8
 5 10 -9 4999.47 273.86 6
 -5 -10 -9 5248.75 298.606 2
 5 -10 8 4647.12 243.771 4
 -5 -10 -8 4931.56 297.075 2
 5 10 -8 3492.38 242.181 6
 -5 -10 -8 3325.05 246.476 3
 -5 10 8 3776.67 225.466 8
 -5 -10 -7 4654.27 283.063 2
 5 -10 7 3900.68 234.353 4
 -5 10 7 4280.87 237.073 8
 -5 -10 -6 3528.95 245.345 2
 5 10 -6 4021.79 271.823 7
 -5 -10 -5 2010.13 190.942 2
 -5 10 5 1944.61 175.484 5
 5 10 -5 2126.59 198.7 7
 -5 -10 -4 2005.16 190.671 2
 -5 10 4 1753.12 166.434 5
 5 -10 4 2027.38 170.928 4
 5 10 -4 2226.62 199.758 7
 -5 -10 -3 1008.48 140.673 2
 -5 10 3 1128.02 134.279 5
 5 10 -3 1113.56 143.35 7
 5 -10 3 732.294 112.978 4
 5 10 -2 989.016 137.77 7
 -5 -10 -2 1010.43 158.721 2
 5 -10 1 516.846 89.1047 4
 5 -10 0 759.823 109.642 4
 -5 10 0 452.871 100.791 5
 5 -10 -1 553.828 101.32 4
 -5 10 -1 535.183 92.9875 5
 5 -10 -2 1045.42 130.631 4
 -5 10 -2 964.548 119.143 5
 -5 -10 3 1220.57 191.207 1
 5 10 3 1113.97 145.023 7
 5 -10 -3 1209.17 132.103 3
 5 -10 -3 1364.74 149.346 4
 -5 -10 4 2823.28 265.309 1
 5 -10 -4 2756.32 198.526 3
 -5 10 -4 3314.02 221.054 5
 5 10 4 2031.47 198.64 7
 -5 -10 4 2783.19 263.218 2
 5 -10 -4 1448.15 174.647 4
 5 10 5 2077.99 176.249 7
 -5 -10 5 1858.78 218.296 1
 -5 10 -5 2075.9 178.796 5
 -5 -10 5 2023.07 243.088 2
 5 -10 -5 2169.29 175.305 3
 -5 -10 6 4426.33 324.935 1
 5 -10 -6 4029.45 232.326 3
 5 10 6 4055.92 240.265 7
 5 10 7 4177.27 236.403 7
 5 -10 -7 4038.66 228.788 3
 -5 10 -8 3522.99 230.281 6
 5 10 8 4003.78 246.5 8
 5 -10 -8 3900.18 223.434 3
 5 -10 -9 5007.86 255.734 3
 -5 -10 9 5092.38 342.287 1
 5 10 10 2607.83 192.727 8
 -5 10 -10 2218.05 182.198 6
 5 -10 -10 2441.04 180.018 3
 -5 -10 10 2641.38 253.567 1
 5 10 11 3745.79 230.059 8
 -5 -10 11 4273.52 305.029 1
 5 -10 -11 4114.71 231.554 3
 -5 10 -11 4237.35 243.018 6
 -5 -11 -10 250.211 78.9917 2
 -5 -11 -9 3142.53 233.797 2
 5 -11 9 3263.58 217.126 4
 -5 -11 -7 6229.17 330 2
 5 11 -7 6615.48 353.307 7
 5 -11 7 5528.83 271.63 4
 -5 -11 -6 81.8546 63.4251 2
 5 -11 6 109.934 60.1132 4
 5 11 -6 135.584 62.8015 7
 -5 11 6 167.003 66.9754 5
 -5 -11 -5 10697.8 430.764 2
 -5 11 4 239.334 77.0203 5
 -5 -11 -4 190.327 73.9807 2
 5 11 -4 245.293 83.1943 7
 5 -11 4 160.599 64.1876 4
 5 11 -3 11756.8 468.062 7
 -5 -11 -3 11841.9 468.366 2
 -5 11 3 11319 416.432 5
 5 -11 2 705.634 115.447 4
 5 11 -2 1064.58 140.798 7
 -5 -11 -2 829.288 133.391 2
 -5 11 2 935.943 128.063 5
 -5 11 1 11071.1 418.912 5
 5 -11 1 11446.3 413.893 4
 -5 11 0 304.244 77.2014 5
 5 11 0 529.859 104.253 7
 5 -11 0 165.1 63.36 4
 -5 -11 0 381.07 99.7124 2
 5 11 1 10967.1 427.62 7
 5 -11 -1 11384 417.724 4
 5 11 2 777.852 117.733 7
 5 -11 -2 643.604 101.942 3
 -5 -11 2 691.253 133.482 2
 5 -11 -3 11518.5 400.041 3
 -5 -11 3 11391.3 525.137 2
 5 11 4 99.5603 52.5327 7
 5 -11 -4 127.58 63.3125 3
 -5 -11 4 58.3724 83.3659 1
 -5 -11 6 42.272 79.1865 1
 -5 11 -6 56.2167 54.377 6
 5 -11 -6 59.0018 52.5353 3
 5 11 7 5522.49 289.279 8
 -5 -11 7 5767.36 377.251 1
 5 -11 -7 5007.98 261.091 3
 -5 11 -7 4989.71 275.485 6
 -5 11 -8 84.3399 56.745 6
 5 11 9 2775.22 202.908 8
 5 -11 -9 3002.91 201.964 3
 -5 11 -9 2657.94 201.235 6
 5 11 10 245.84 76.3708 8
 5 -11 -10 328.591 78.8051 3
 -5 11 -10 277.634 80.7221 6
 -5 -11 10 452.33 117.484 1
 5 -12 8 2524.72 195.171 4
 -5 12 8 2875.03 221.841 5
 5 12 -8 3253.31 254.121 7
 -5 -12 -8 2957.09 225.692 2
 5 -12 7 613.193 99.862 4
 -5 12 7 748.562 118.18 5
 -5 -12 -7 597.829 110.444 2
 5 12 -7 623.879 117.545 7
 5 12 -6 3699.58 276.802 7
 -5 -12 -6 4895.61 300.919 2
 -5 12 6 4905.12 291.397 5
 5 -12 6 3679.18 234.166 4
 5 12 -5 713.597 126.621 7
 -5 -12 -5 562.182 107.351 2
 -5 12 5 627.78 111.067 5
 5 -12 5 567.73 103.173 4
 5 12 -4 2348.8 219.769 7
 -5 -12 -4 2070.53 200.478 2
 5 -12 4 2166.95 193.612 4
 -5 -12 -3 1191.83 157.42 2
 5 12 -3 1231.67 156.85 7
 -5 -12 -1 2557.79 230.722 2
 5 12 -1 2244.27 208.338 7
 -5 -12 0 21.145 46.9341 2
 5 -12 -4 2829.57 207.513 3
 -5 -12 4 2253.38 274.586 1
 5 -12 -5 832.095 119.407 3
 -5 -12 5 870.185 163.915 1
 5 12 6 4812.23 279.451 8
 5 -12 -6 5513.95 296.233 3
 -5 -12 6 4464.48 342.176 1
 -5 12 -7 399.46 95.6863 6
 5 12 7 633.141 109.673 8
 5 -12 -7 679.441 108.699 3
 -5 -12 7 802 155.846 1
 -5 12 -8 2433.43 206.053 6
 -5 -12 8 2452.48 258.198 1
 5 12 8 3074.57 218.519 8
 5 -12 -8 3062.14 210.938 3
 -5 -13 -6 2392.94 212.291 2
 -5 -13 -5 2129.61 206.925 2
 -5 -13 6 2031.4 246.065 1
 5 -13 -7 1901.02 181.254 3
 6 0 0 111962 1040.07 7
 -6 0 0 108580 1225.77 8
 6 0 -1 1981.53 155.81 6
 -6 0 -1 2469.37 197.468 8
 -6 0 1 2575.46 186.938 8
 6 0 -1 2289.77 147.72 7
 6 0 1 2087.69 146.635 6
 -6 0 1 2842.4 224.748 2
 6 0 -1 2951.41 171.362 4
 6 0 1 2950.59 164.447 4
 -6 0 -1 2497.18 155.7 5
 -6 0 2 127980 1299.87 8
 -6 0 -2 128828 1346.68 8
 -6 0 2 120861 1543.67 2
 6 0 -2 120692 1167.22 6
 6 0 -3 34929.4 595.636 6
 -6 0 3 35094.3 576.624 5
 -6 0 3 37542.6 686.046 8
 -6 0 -3 36048.8 605.523 5
 6 0 3 36065.5 589.671 7
 6 0 3 35252.5 563.277 4
 6 0 -3 37463.6 604.135 4
 6 0 4 101046 1001.72 4
 -6 0 -4 94442.6 1093.31 2
 6 0 4 82320.1 932.031 7
 6 0 -4 97229.7 969.452 3
 -6 0 4 95050.8 1520.36 2
 -6 0 4 92075.2 1258.83 1
 -6 0 -4 106426 1082.85 5
 6 0 -4 102661 1041.47 6
 -6 0 4 101060 1153.87 8
 6 0 -4 103532 1010.84 4
 -6 0 -5 17868.7 501.26 5
 6 0 5 20329.1 447.335 4
 -6 0 5 19851.7 518.6 8
 -6 0 5 24700.4 642.662 1
 6 0 -5 18811.7 443.562 6
 6 0 -5 22891.8 495.053 4
 6 0 -5 22459.4 476.776 3
 -6 0 -5 22675.8 544.049 2
 -6 0 5 19652.1 721.122 2
 6 0 6 81552.6 945.563 4
 -6 0 -6 84969.2 1065.15 2
 -6 0 6 79488.3 1495.92 2
 -6 0 -6 86340.7 1013.13 5
 -6 0 6 90132.6 1248.26 1
 -6 0 6 79329.7 1048.6 8
 6 0 -6 88366.8 983.216 3
 6 0 -6 80374 936.369 4
 -6 0 -6 84013.7 1335.45 3
 -6 0 -7 16940.3 594.576 3
 -6 0 7 13683.6 497.392 1
 -6 0 -7 14929.8 448.729 2
 6 0 7 15429.9 424.114 4
 -6 0 -7 16744.7 453.628 5
 -6 0 7 15904.8 468.577 8
 -6 0 7 15810.1 679.744 2
 6 0 7 15759.5 414.828 7
 6 0 -7 13887.1 393.722 4
 6 0 -7 15367.1 415.92 3
 6 0 -7 17165.2 462.344 6
 6 0 8 41959.1 717.719 4
 6 0 -8 41140.9 687.635 4
 6 0 -8 41996.3 694.638 3
 6 0 8 40013.2 493.476 1
 -6 0 -8 44315.6 926.153 3
 -6 0 -8 42727 718.136 5
 -6 0 8 47680.4 1193 2
 -6 0 8 45000 789.11 8
 6 0 8 44466.2 690.327 7
 6 0 -8 42172.7 746.133 6
 6 0 -9 1631.65 155.878 6
 -6 0 -9 1422.78 148.365 2
 6 0 9 1520.78 133.874 7
 6 0 9 1306.14 131.62 4
 6 0 -9 1273.02 131.341 3
 -6 0 9 1580.96 158.643 8
 -6 0 9 1513.23 181.588 1
 6 0 -10 15986.5 442.103 4
 -6 0 10 15657.5 706.366 2
 -6 0 -10 19232 483.121 5
 -6 0 -10 17399.9 552.7 3
 6 0 -10 17981.7 492.134 6
 6 0 10 18134.2 453.439 7
 6 0 -10 14671.8 434.932 3
 6 0 10 15203.4 446.206 1
 6 0 10 16024.6 461.634 4
 6 0 11 99.9664 43.8215 7
 -6 0 11 186.493 68.2085 8
 -6 0 -11 108.987 58.967 5
 6 0 -11 145.422 68.1037 6
 -6 0 11 123.633 95.1385 2
 6 0 -11 185.226 64.3488 4
 6 0 11 101.163 60.0126 1
 -6 0 -11 132.937 77.4574 3
 -6 0 -12 8940.62 362.984 5
 -6 0 12 7172.79 330.737 8
 -6 0 12 7722.02 515.209 2
 6 0 12 6555.39 313.671 1
 6 0 12 6355.2 283.224 7
 -6 0 -12 8223.97 391.615 3
 6 0 -12 7051.58 297.595 4
 6 0 13 77.3713 46.1791 7
 6 0 -13 135.992 58.5206 4
 -6 0 -13 37.6719 62.6245 3
 -6 0 13 141.756 95.7998 2
 6 0 -13 160.778 66.0933 6
 6 0 13 156.955 66.3181 1
 -6 0 13 184.712 70.1396 8
 -6 0 -13 155.849 68.1223 5
 6 0 14 1146.41 126.01 7
 -6 0 14 1278.16 147.423 8
 6 0 -14 1123.1 133.93 6
 -6 0 14 1491.99 226.891 2
 6 0 14 1059.01 136.192 1
 -6 0 -14 1254.7 149.102 3
 6 0 -14 1301.47 131.752 4
 -6 0 -14 1288.05 149.357 5
 -6 0 15 236.098 74.9135 8
 6 0 -15 296.112 80.735 6
 -6 -1 -14 4235.5 259.449 5
 -6 -1 -14 4953.94 286.242 3
 -6 1 14 3808.34 350.796 2
 -6 1 14 3717.54 233.208 8
 6 1 -14 5096.38 265.919 6
 6 -1 14 4490.45 250.928 7
 6 1 -14 4076.24 225.455 4
 6 1 -13 1059.03 119.219 4
 6 -1 13 959.429 117.806 7
 -6 -1 -13 1088.65 138.459 3
 -6 1 13 1062.13 194.156 2
 -6 1 13 1000.73 124.097 8
 6 1 -13 1091.87 127.495 6
 -6 -1 -13 1129.5 135.473 5
 6 -1 13 1195.93 140.902 1
 -6 -1 -12 8699.95 366.628 5
 6 -1 12 7773.92 335.389 1
 -6 1 12 9078.08 536.831 2
 6 1 -12 7278.36 300.501 4
 -6 -1 -12 8947.09 402.505 3
 6 -1 12 7572.39 311.18 7
 6 1 -12 6674.41 291.151 6
 -6 1 12 8391.11 341.91 8
 6 -1 11 2731.09 194.59 4
 -6 -1 -11 2985.58 214.231 5
 6 -1 11 2955.69 215.093 1
 -6 1 11 2900.57 309.384 2
 6 1 -11 2235.13 169.314 4
 6 -1 11 3216.32 199.217 7
 -6 -1 -11 3153.24 247.37 3
 6 1 -11 3424.42 209.388 6
 -6 1 11 3180.93 210.799 8
 6 1 -10 8751.82 322.912 4
 -6 1 10 9034.58 346.426 8
 -6 -1 -10 9797.28 414.603 3
 -6 -1 -10 8049.28 351.799 2
 -6 -1 -10 8922.02 349.416 5
 -6 1 10 8935.17 529.224 2
 6 -1 10 10333.3 393.149 1
 6 -1 9 11971.9 379.299 4
 -6 -1 -9 11984.4 432.967 2
 6 -1 9 11089.8 362.036 7
 -6 -1 -8 8433.97 319.682 5
 -6 1 8 7315.63 370.857 1
 6 -1 8 8473.23 320.815 4
 -6 1 8 8186.62 500.539 2
 6 -1 8 7941.64 301.294 7
 6 1 -8 9127.46 338.148 3
 6 1 -8 8127.76 306.612 4
 -6 -1 -8 8148.75 401.832 3
 -6 1 8 8723.96 337.484 8
 6 1 -8 9275.06 332.839 6
 -6 -1 -8 7429.41 330.863 2
 6 -1 8 8144.22 225.654 1
 -6 -1 -7 11230.9 471.956 3
 -6 1 7 11507.8 580.394 2
 -6 -1 -7 12101.2 376.024 5
 -6 1 7 12646.8 479.054 1
 6 -1 7 10656.1 339.696 7
 6 1 -7 10413.6 339.99 4
 6 1 -7 10965.5 351.99 3
 6 -1 7 11489.8 362.657 4
 6 1 -7 12670.6 393.159 6
 -6 1 7 12415.2 396.408 8
 6 -1 7 11399.3 262.797 1
 -6 -1 -6 5371.52 273.009 2
 -6 1 6 4797.46 293.88 1
 6 -1 6 5417.2 253.243 4
 6 1 -6 5679.08 242.39 3
 6 1 -6 5853.28 249.325 4
 6 -1 6 5524.63 241.396 7
 -6 1 6 4924.5 380.828 2
 -6 1 6 5636.13 275.753 8
 -6 -1 -6 5458.11 341.861 3
 6 1 -6 4366.87 245.82 6
 -6 -1 -5 3125.77 188.454 5
 6 -1 5 3192.02 183.117 4
 6 1 -5 3513.16 206.26 6
 -6 -1 -5 3681.33 227.915 2
 6 1 -5 3122.34 185.046 3
 -6 1 5 2807.14 288.1 2
 -6 1 5 3558.29 251.069 1
 -6 -1 -5 3556.79 282.528 3
 -6 1 5 3607.04 219.708 8
 6 -1 5 2978.71 172.562 7
 -6 1 4 510.22 130.066 2
 -6 1 4 363.541 84.3114 8
 6 -1 4 410.937 73.6591 4
 6 -1 4 339.866 62.2062 7
 -6 -1 -4 343.985 69.7851 5
 6 1 -4 339.471 69.7907 6
 6 1 -4 507.693 77.8168 4
 -6 -1 -4 407.907 83.0118 2
 6 -1 3 3917.74 194.834 4
 -6 -1 -3 4848.39 273.529 2
 -6 1 3 4022.77 311.29 2
 6 1 -3 4125.15 213.685 7
 -6 1 3 3964.11 199.421 5
 6 1 -3 4237.24 208.845 6
 6 1 -3 4305.69 196.592 4
 -6 1 3 4785.68 246.627 8
 6 -1 3 3955.63 191.92 7
 -6 -1 -3 4710.26 226.347 5
 6 1 -2 4086.75 209.96 7
 6 -1 2 4096.91 205.771 4
 6 1 -2 3841.78 195.55 6
 -6 1 2 4326.85 231.973 8
 -6 -1 -2 3882.27 196.471 5
 -6 -1 -2 4380.39 255.074 2
 -6 1 2 4519.5 305.862 2
 -6 -1 -1 6980.9 320.991 2
 6 -1 1 10026.3 306.538 7
 6 1 -1 6837.31 268.089 7
 6 -1 1 4979.65 248.435 6
 -6 1 1 7180.89 296.612 8
 -6 -1 -1 7158.03 337.964 8
 6 1 -1 7340.72 283.471 6
 -6 1 1 8251.67 282.965 5
 6 1 0 333.237 68.4739 7
 6 -1 0 399.165 65.1807 7
 6 1 0 580.93 87.7693 6
 6 -1 0 444.922 76.3167 6
 6 -1 0 519.709 77.1458 4
 -6 -1 0 484.158 90.4265 8
 -6 -1 0 461.739 98.754 2
 -6 1 0 409.194 98.3325 2
 -6 -1 0 393.338 65.8089 5
 -6 1 0 425.334 74.4503 5
 6 1 1 6875.16 254.128 6
 6 -1 -1 5376.47 224.634 7
 -6 -1 1 7145.98 361.338 2
 -6 1 -1 7264.64 315.997 2
 6 1 1 6403 259.81 7
 6 -1 -1 4819.49 238.877 6
 -6 1 -1 7681.18 308.479 8
 -6 -1 1 7326.9 323.078 8
 -6 1 -1 7276.06 262.272 5
 -6 -1 1 7619.93 263.106 5
 6 -1 -1 6671.15 257.827 4
 6 1 1 6507.48 238.67 4
 6 1 2 4127.17 193.267 4
 6 -1 -2 3484.73 203.508 6
 -6 1 -2 3575.6 187.594 5
 -6 -1 2 3411.12 263.233 2
 -6 1 -2 3347.15 214.655 2
 -6 -1 2 3667.87 182.16 5
 -6 1 -2 3470.51 224.598 8
 -6 -1 2 3338.19 211.542 8
 6 -1 -2 3466.9 182.075 7
 6 1 2 3955.95 199.642 6
 6 1 2 3599.83 189.74 7
 6 -1 -2 3526.46 195.138 4
 -6 -1 3 3752.62 186.818 5
 6 -1 -3 2505.52 159.31 7
 6 -1 -3 3033.79 218.198 6
 6 -1 -3 3529.1 183.436 3
 -6 1 -3 3074.67 194.255 5
 6 1 3 3843.12 201.208 7
 6 -1 -3 3606.79 205.638 4
 -6 -1 3 3506.48 286.224 2
 -6 -1 3 3789.02 229.252 8
 -6 -1 4 144.788 67.3094 8
 -6 1 -4 88.8427 50.0129 5
 6 -1 -4 176.636 56.3762 3
 6 1 4 87.1934 46.9162 7
 -6 -1 4 57.6597 84.9629 2
 -6 1 -4 141.304 54.2474 2
 -6 -1 4 55.8861 67.8803 1
 6 -1 -4 145.676 57.1157 6
 6 1 4 54.1979 43.6097 4
 6 -1 -4 107.528 47.0011 4
 6 1 5 4392.92 205.219 4
 -6 -1 5 4713.71 290.028 1
 6 -1 -5 4427.89 220.63 3
 6 -1 -5 4061.15 208.333 4
 6 -1 -5 3890.42 210.708 6
 6 1 5 4408.56 214.794 7
 -6 1 -5 4497.64 225.286 5
 -6 -1 5 4215.05 335.717 2
 -6 -1 6 4013.86 343.216 2
 -6 1 -6 3630.9 205.738 5
 -6 1 -6 3512.2 209.723 2
 6 -1 -6 3905 207.018 3
 6 1 6 3958.95 205.845 4
 -6 -1 6 4350.5 250.567 8
 6 1 6 3672.91 197.663 7
 6 -1 -6 4485.32 223.258 6
 -6 -1 6 4395.41 281.52 1
 6 -1 -6 4338.1 224.14 4
 6 1 7 11920.3 377.589 4
 -6 1 -7 11927.4 400.484 2
 6 1 7 15032.2 425.837 7
 -6 1 -7 14137.7 420.902 5
 -6 -1 7 12428.9 612.573 2
 -6 -1 7 13218.5 438.227 8
 6 -1 -7 11512 366.121 6
 -6 1 -7 12225.3 522.896 3
 6 -1 -7 11823.8 362.311 3
 6 -1 -7 13485.3 392.653 4
 6 1 8 6712.87 273.207 7
 6 1 8 6930.66 209.004 1
 6 -1 -8 7024.28 286.806 4
 -6 1 -8 6035.43 274.412 5
 -6 -1 8 7275.18 476.678 2
 -6 1 -8 6947.09 382.633 3
 -6 -1 8 7036.04 373.238 1
 -6 -1 8 7741.09 337.447 8
 6 -1 -8 6614.33 272.713 3
 6 -1 -9 12053.2 375.372 3
 -6 -1 9 11930.6 488.067 1
 6 1 9 13302.3 405.644 4
 6 -1 -9 12832.1 412.446 6
 -6 -1 9 12493.7 442.158 8
 6 -1 -10 11180.5 393.463 6
 6 1 10 5620.12 239.076 1
 -6 -1 10 10575 404.44 8
 -6 1 -10 9926.76 439.262 3
 -6 -1 10 8570.89 417.704 1
 -6 1 -10 8963.24 330.326 5
 6 1 10 8172.75 304.682 7
 -6 -1 10 9254.45 545.931 2
 6 -1 -10 7838.52 311.993 3
 6 -1 -10 9206.19 333.532 4
 6 -1 -11 4762.79 261.812 6
 6 1 11 3414.14 203.633 7
 6 1 11 3255.75 224.958 1
 6 -1 -11 3670.82 215.196 4
 -6 -1 11 4360.7 265.253 8
 -6 1 -11 4123.34 231.312 5
 -6 -1 11 3331.84 271.048 1
 -6 1 -11 3719.37 268.945 3
 -6 -1 11 3743.15 355.274 2
 6 -1 -11 3277.83 208.229 3
 6 1 12 9363.73 331.291 7
 -6 1 -12 8421.48 342.838 5
 -6 1 -12 8677.76 348.383 6
 -6 -1 12 9674.51 556.582 2
 6 1 12 8180.21 353.978 1
 6 -1 -12 9083.38 334.369 4
 -6 1 -12 9124.11 416.367 3
 6 -1 -13 1320.12 132.624 4
 6 -1 -13 1437.13 152.742 6
 6 1 13 1019.09 114.978 7
 -6 -1 13 1327.31 218.521 2
 -6 1 -13 1059.73 124.848 6
 -6 1 -13 1211.54 141.957 5
 6 1 13 1008.92 132.582 1
 -6 1 -13 1043.29 145.907 3
 -6 -1 13 1140.7 141.859 8
 6 -1 -14 4506.77 256.033 6
 -6 1 -14 4864.51 285.115 3
 6 1 14 4020.94 224.955 7
 -6 -1 14 5192.8 408.759 2
 -6 1 -14 4346.94 248.456 5
 6 1 14 4092.73 258.016 1
 6 -1 -14 4217.71 229.835 4
 -6 -1 14 4926.38 288.994 8
 -6 -2 -14 1123.14 143.578 5
 6 2 -14 736.52 103.66 6
 6 -2 14 639.512 101.916 7
 6 -2 14 902.323 122.747 1
 -6 2 14 1059.78 125.207 8
 -6 -2 -14 1032.18 136.236 3
 -6 2 14 792.025 178.322 2
 6 2 -14 1222.1 123.811 4
 6 2 -13 2767.9 193.817 6
 -6 -2 -13 3343.25 237.542 5
 6 -2 13 2590.37 189.224 7
 6 -2 13 2597.18 203.7 1
 -6 2 13 2255.94 202.204 8
 -6 -2 -13 3674.44 247.731 3
 -6 2 13 3008.02 310.838 2
 6 2 -13 2657.1 179.462 4
 6 2 -12 3181.9 206.083 6
 6 2 -12 2839.57 188.747 4
 -6 -2 -12 3671.13 256.672 3
 -6 2 12 3387.07 214.704 8
 -6 -2 -12 3060.79 220.082 5
 6 -2 12 3033.7 202.131 7
 -6 2 12 3074.97 319.51 2
 6 -2 12 2952.55 213.802 1
 -6 -2 -11 5720.38 327.922 3
 6 2 -11 5676.46 267.011 6
 6 -2 11 5542.26 266.062 7
 6 -2 11 4921.04 271.403 1
 -6 -2 -11 5036.05 292.775 2
 6 2 -11 5129.81 250.322 4
 6 -2 11 5507.89 269.325 4
 -6 -2 -11 6034.79 308.062 5
 -6 2 11 5712.64 276.589 8
 -6 2 11 6506.32 453.842 2
 6 2 -10 9694.34 349.136 6
 6 -2 10 10625.9 359.054 7
 6 2 -10 10103.5 353.495 4
 6 -2 10 11925.4 430.369 1
 -6 -2 -10 11884.5 455.315 3
 6 -2 10 10686.8 356.086 4
 -6 2 10 11656.6 387.603 8
 -6 -2 -10 10990.5 411.054 2
 -6 2 10 10395.7 574.894 2
 6 -2 9 17070.3 495.696 1
 6 -2 9 20032.3 487.473 7
 -6 -2 -9 18892.1 577.431 3
 -6 -2 -9 19460.3 555.773 2
 6 -2 9 16188.5 453.023 4
 6 2 -9 14582.6 428.446 6
 -6 2 9 18402.2 486.273 8
 -6 -2 -8 19943.3 475.933 5
 -6 2 8 19463.2 493.084 8
 -6 -2 -8 17851.2 502.548 2
 -6 -2 -8 19283.9 582.796 3
 6 -2 8 17058.6 468.306 4
 6 -2 8 18800.6 457.6 7
 6 2 -8 17821.9 459.538 6
 -6 -2 -7 29462.8 659.429 2
 6 -2 7 30037.2 422.652 1
 6 -2 7 28298.5 557.408 7
 6 2 -7 30282.5 592.767 6
 -6 2 7 29957.9 930.593 2
 -6 2 7 31609.4 652.954 8
 6 2 -7 31816 590.212 4
 -6 -2 -7 30806.7 771.251 3
 6 -2 7 31169 608.111 4
 -6 2 6 27139.4 869.815 2
 6 2 -6 23606.2 502.365 4
 6 -2 6 25522.4 510.588 7
 6 -2 6 26283.4 400.5 1
 -6 2 6 28879 591.152 8
 6 2 -6 21889.1 513.477 6
 -6 -2 -6 27313 735.325 3
 6 -2 5 75827 878.576 7
 -6 -2 -5 79836.7 976.561 5
 -6 2 5 74705.5 1417.13 2
 -6 -2 -5 71353.4 1042.85 2
 6 -2 5 76947.9 893.462 4
 6 2 -5 70055.7 850.884 4
 -6 -2 -4 41569 764.615 2
 -6 -2 -4 40977.5 922.99 3
 -6 2 4 37572.1 985.069 2
 6 2 -4 44024.4 690.062 6
 6 -2 4 38270.6 605.438 7
 -6 2 4 42506.8 723.303 8
 6 2 -4 42151.6 646.368 4
 -6 2 3 62222.6 881.853 8
 6 2 -3 61207.9 771.006 6
 -6 -2 -3 60875.5 780.009 5
 6 2 -3 63909 768.26 4
 6 -2 3 58433.4 764.875 4
 6 2 -3 61313.9 849.9 7
 -6 -2 -3 63765.8 962.398 2
 -6 2 3 58366.9 1137.39 2
 6 2 -2 49746.2 707.039 6
 -6 2 2 51792.7 731.596 5
 6 -2 2 52566.8 673.073 7
 6 2 -2 48608.2 667.767 4
 6 2 -2 54720.6 785.236 7
 -6 -2 -1 76626.3 1067.15 8
 -6 2 1 75907.3 958.336 8
 6 2 -1 70643.8 888.745 7
 6 -2 1 59220.3 789.874 4
 -6 2 1 74692.1 1122.19 2
 -6 -2 -1 71408.8 1050.84 2
 6 -2 1 90333.7 889.354 7
 -6 2 1 72347.5 852.63 5
 -6 -2 -1 62824.1 770.931 5
 -6 -2 0 45870.1 880.641 2
 -6 2 0 45473.4 828.197 2
 6 -2 0 45895.3 679.096 6
 6 2 0 46803.8 714.363 7
 6 -2 0 42025.9 636.772 4
 6 2 0 44400.1 616.251 4
 6 2 0 48908.7 711.259 6
 6 -2 0 43134.6 608.271 7
 -6 2 0 45194.4 669.244 5
 -6 -2 0 44029.6 614.582 5
 -6 2 0 48850.7 770.723 8
 -6 2 -1 68465.3 944.992 2
 -6 -2 1 81416.7 1242.79 2
 6 2 1 75682.6 797.349 4
 6 -2 -1 89250.2 921.061 4
 6 -2 -1 59823.8 719.66 7
 6 2 1 89514.9 981.479 7
 -6 2 -1 73564.9 855.594 5
 -6 -2 1 76801.8 790.361 5
 -6 2 -1 62766.8 914.931 8
 -6 -2 1 69701.9 1001.33 8
 6 2 1 80477.8 869.668 6
 6 -2 -1 84739.2 937.355 6
 6 2 2 46873.9 643.12 4
 6 2 2 48120.6 709.128 7
 6 -2 -2 49627 749.492 6
 -6 -2 2 46841.8 836.789 8
 6 2 2 48029 698.315 6
 6 -2 -2 47544.5 635.89 7
 -6 -2 2 47058 630.584 5
 -6 2 -2 50645.3 701.484 5
 -6 -2 2 45517.2 941.867 2
 -6 2 -2 46702.1 755.872 2
 -6 -2 3 69317.2 981.333 8
 6 2 3 65339.4 746.231 4
 -6 2 -3 80422 954.952 2
 -6 2 -3 77946.8 927.943 5
 -6 -2 3 60202.4 1027.53 1
 -6 -2 3 66835.3 763.238 5
 6 2 3 64785.2 836.648 7
 6 -2 -3 97092.8 1094.38 6
 6 -2 -3 87341 973.145 4
 6 -2 -3 66018.1 774.727 7
 6 -2 -3 68489.8 809.279 3
 -6 -2 3 66681.4 1196.18 2
 -6 2 -4 43726.5 704.911 5
 6 -2 -4 35039.8 637.543 4
 -6 -2 4 35877.7 581.025 5
 6 2 4 34962.2 547.731 4
 -6 -2 4 39720.6 822.176 1
 -6 -2 4 39085.9 750.965 8
 6 -2 -4 39902.6 640.018 3
 -6 -2 4 33839.8 905.851 2
 6 -2 -4 39805.4 620.703 7
 6 2 4 41637.8 668.816 7
 -6 2 -4 42497.8 691.395 2
 6 -2 -4 49193.8 756.248 6
 6 -2 -5 82682.2 947.849 3
 -6 -2 5 81555.3 1097.19 8
 6 2 6 26379.9 534.682 7
 6 2 6 23909.5 501.002 4
 -6 2 -6 26580.7 551.268 5
 6 -2 -6 24354 517.218 4
 -6 -2 6 25049.4 826.929 2
 6 2 7 32715.5 596.932 7
 6 -2 -7 30997 582.021 3
 -6 2 -7 33948.9 875.668 3
 -6 -2 7 34748 800.223 1
 -6 2 -7 32826.8 638.518 5
 -6 -2 7 30479.1 938.823 2
 6 -2 -7 33780.9 637.628 6
 6 -2 -7 33016.2 620.854 4
 -6 -2 7 33567.2 749.564 8
 6 -2 -8 15208.3 412.222 3
 6 2 8 17491.9 454.779 7
 -6 2 -8 17103.4 615.908 3
 -6 2 -8 16477.3 456.817 5
 6 -2 -8 16922.7 455.802 6
 -6 -2 8 15899 698.616 2
 -6 -2 8 16907.4 568.808 1
 -6 -2 8 16827.3 523.047 8
 6 -2 -9 20989 504.301 4
 6 2 9 17512.8 440.714 7
 6 -2 -9 19097.3 493.062 6
 -6 -2 9 17396.4 582.752 1
 -6 -2 9 18310.7 759.978 2
 -6 2 -9 19103 485.692 5
 6 -2 -9 17077.5 447.226 3
 -6 -2 9 21353.3 588.162 8
 6 -2 -10 10197.6 352.073 3
 6 2 10 9436.96 326.37 7
 6 -2 -10 10371.8 357.934 4
 -6 2 -10 9775.69 434.035 3
 -6 -2 10 11203 476.342 1
 -6 2 -10 9754.24 355.397 5
 -6 -2 10 9525.8 554.54 2
 6 -2 -10 10632.6 370.607 6
 -6 -2 10 10798.2 419.324 8
 6 2 10 10354 270.522 1
 6 -2 -11 5432.2 264.562 3
 6 2 11 4810.55 266.066 1
 6 -2 -11 6013.56 287.455 6
 6 2 11 5175.2 247.437 7
 6 -2 -11 6174.33 279.221 4
 -6 -2 11 6063.79 447.97 2
 -6 2 -11 6705.67 283.918 5
 -6 -2 11 6446.75 357.139 1
 -6 2 -11 5886.68 330.835 3
 -6 -2 11 6502.78 332.592 8
 6 2 12 3352.99 199.65 7
 6 -2 -12 3069.39 201.512 4
 -6 2 -12 2951.57 201.117 5
 -6 2 -12 2960.74 241.287 3
 -6 -2 12 2989.28 324.989 2
 6 2 12 2701.58 198.709 8
 6 2 12 3192.67 230.515 1
 6 -2 -13 2685.04 187.867 4
 6 -2 -13 2122.1 180.947 6
 6 2 13 2559.31 173.76 7
 -6 -2 13 1811.11 195.866 8
 -6 -2 13 2573.05 306.17 2
 -6 2 -13 2405.9 219.159 3
 -6 2 -13 3079.72 212.822 5
 -6 2 -13 2347.29 181.037 6
 6 2 13 2290.93 188.228 1
 -6 2 -14 867.032 118.836 6
 6 2 14 730.023 107.786 7
 -6 2 -14 925.741 124.814 5
 6 -2 -14 1058.25 121.543 4
 6 2 14 787.784 119.117 1
 -6 -2 14 864.615 176.295 2
 -6 2 -14 929.297 134.194 3
 -6 -3 -14 975.49 131.077 3
 -6 3 14 1014.15 186.651 2
 -6 -3 -14 674.145 120.361 5
 -6 3 14 899.992 113.997 8
 6 3 -14 551.367 89.5636 4
 6 -3 14 724.403 113.345 1
 6 -3 14 794.034 116.062 7
 -6 -3 -13 7316.87 352.091 5
 -6 3 13 5831.25 424.2 2
 6 -3 13 4061.86 252.321 7
 6 3 -13 6673.56 280.551 6
 -6 3 13 6190.73 284.289 8
 6 3 -13 4698.14 242.908 4
 6 3 -12 544.902 90.5853 4
 -6 -3 -12 560.132 108.513 3
 -6 3 12 345.643 122.968 2
 -6 3 12 401.593 80.7571 8
 -6 -3 -12 593.141 107.621 5
 6 3 -12 327.032 81.7576 6
 6 -3 12 491.139 88.4968 7
 6 -3 12 325.068 85.2265 1
 -6 -3 -11 8846.9 370.995 5
 6 3 -11 8644.92 321.801 4
 6 -3 11 9554.73 359.4 7
 6 -3 11 9862.57 353.373 4
 6 -3 10 873.796 108.14 4
 -6 -3 -10 762.104 121.207 2
 6 3 -10 897.596 108.779 4
 -6 3 10 763.122 172.845 2
 -6 3 10 914.407 112.438 8
 -6 -3 -10 777.163 119.494 5
 -6 -3 -10 1056.23 152.061 3
 6 -3 10 742.362 113.39 1
 6 -3 10 918.974 113.649 7
 6 3 -10 904.883 112.894 6
 6 3 -9 8773.52 328.895 6
 -6 -3 -9 11441.9 449.502 3
 6 3 -9 10296.2 363.296 4
 -6 3 9 11180 368.588 8
 6 -3 9 9302.66 351.402 7
 6 -3 9 9752.63 358.863 4
 6 -3 9 11067.8 414.329 1
 -6 3 9 10891.7 569.047 2
 -6 -3 -8 396.38 86.4956 2
 6 -3 8 397.947 89.6221 1
 -6 -3 -8 361.077 83.1168 5
 -6 3 8 335.915 116.908 2
 6 3 -8 556.055 86.8907 4
 6 -3 8 292.739 68.5796 7
 6 -3 8 325.596 77.6868 4
 -6 3 8 380.092 77.4964 8
 6 3 -8 316.863 73.8888 6
 -6 -3 -8 384.632 103.595 3
 -6 -3 -7 7246.59 326.742 2
 6 -3 7 4983.85 223.015 1
 -6 -3 -7 6133.88 268.818 5
 6 3 -7 4897.34 240.201 4
 6 -3 7 6545.71 276.612 7
 6 3 -7 6556.08 277.919 6
 -6 3 7 7904.03 311.278 8
 -6 3 7 7497.71 470.989 2
 6 -3 7 7391.03 307.311 4
 -6 -3 -7 7084.13 353.958 3
 -6 -3 -6 3633.49 232.916 2
 6 -3 6 3104.49 138.914 1
 6 3 -6 2970.28 184.325 4
 6 -3 6 2891.04 176.478 7
 6 3 -6 3776.26 209.7 6
 -6 3 6 3748.13 331.48 2
 -6 3 6 3727.97 216.126 8
 6 -3 6 3868.28 216.922 4
 -6 -3 -6 4034.87 286.263 3
 6 -3 5 7250.91 265.081 7
 6 3 -5 8786.32 322.132 6
 -6 -3 -5 6850.94 282.829 5
 -6 3 5 8480.53 319.531 8
 -6 3 5 7463.81 454.62 2
 6 3 -5 8422.4 295.181 4
 -6 3 4 2442.3 178.032 8
 6 -3 4 2003.88 138.734 7
 6 3 -4 2368.02 168.157 6
 -6 3 4 2184.58 243.614 2
 -6 -3 -4 1997.42 150.962 5
 -6 -3 -4 2133.56 220.912 3
 6 3 -4 2319.11 156.077 4
 6 -3 4 2078.42 156.201 4
 -6 -3 -3 7342.87 400.664 3
 -6 -3 -3 8934.1 374.079 2
 6 -3 3 9342.83 308.394 4
 -6 3 3 8091.49 431.881 2
 6 3 -3 8778.39 329.833 7
 6 -3 3 9379.1 308.762 7
 6 3 -3 9447 295.356 4
 -6 3 3 9115.39 333.11 8
 -6 -3 -3 6343.45 268.789 5
 6 3 -2 1095.17 119.438 7
 6 -3 2 1073.18 94.8342 7
 -6 3 2 1394.45 139.773 8
 6 -3 2 1531.54 137.716 4
 -6 -3 -2 1170.3 143.937 2
 -6 3 2 1172.09 117.927 5
 -6 -3 -2 1347.6 113.964 5
 6 3 -2 1114.47 114.505 6
 6 3 -1 29601.6 590.186 7
 -6 -3 -1 25017.9 481.476 5
 6 3 -1 25812.6 497.108 4
 -6 3 1 29311 587.365 8
 -6 3 1 27113.1 531.035 5
 -6 3 1 27459.9 674.301 2
 -6 -3 -1 29298.7 697.762 2
 6 -3 1 27169.2 465.631 7
 6 3 -1 25502.7 504.117 6
 6 -3 0 5438.76 199.151 7
 -6 3 0 4650.42 261.162 2
 -6 -3 0 4499.2 281.813 2
 6 -3 0 4773.92 224.588 4
 6 3 0 4019.53 185.929 4
 -6 -3 0 4426.31 193.179 5
 -6 3 0 4220.48 211.157 5
 -6 3 0 4759.53 239.008 8
 -6 -3 0 4942.59 284.755 8
 6 3 0 4627.48 234.936 6
 6 3 0 4497.11 225.657 7
 6 -3 0 5241.16 244.665 6
 6 -3 -1 26860.8 441.469 7
 -6 -3 1 26334.3 458.389 5
 -6 3 -1 25299.5 517.673 5
 6 3 1 28095.2 470.853 4
 6 -3 -1 23087.6 483.251 4
 -6 -3 1 26394.6 705.272 2
 -6 3 -1 24679.7 539.01 2
 -6 -3 1 28924.4 675.839 8
 6 -3 -1 19964.4 459.472 6
 6 3 1 28224.1 563.593 7
 6 3 1 30400.8 534.679 6
 6 3 2 1445.5 121.827 6
 6 -3 -2 1840.33 146.476 4
 -6 -3 2 1124.34 94.9178 5
 -6 3 -2 1195.36 115.912 5
 -6 -3 2 1298.87 149.47 8
 6 3 2 1519.55 119.232 4
 -6 3 -2 1287.04 118.629 2
 -6 -3 2 1332.53 174.461 2
 6 -3 -2 1389.72 128.994 6
 6 3 2 1420.31 129.97 7
 6 -3 -2 1174.77 95.5134 7
 6 -3 -2 1293.49 117.654 3
 -6 3 -3 7861.87 296.829 5
 -6 -3 3 7038.21 237.552 5
 -6 -3 3 7481.2 398.729 2
 6 -3 -3 7746.71 282.418 3
 -6 -3 3 7724.17 356.409 8
 6 3 3 7362.51 292.447 7
 6 3 3 7185.57 258.125 4
 -6 -3 3 7930.34 379.25 1
 6 -3 -4 1965.7 158.182 4
 6 3 4 1634.57 146.46 7
 -6 -3 4 2162.2 136.527 5
 -6 -3 4 2206.3 207.912 1
 6 -3 -4 2365.77 165.174 3
 6 -3 -4 2314.78 175.015 6
 -6 -3 4 2067.84 187.017 8
 -6 3 -5 6936.25 290.963 5
 6 -3 -5 6193.84 280.088 4
 6 -3 -5 6507.23 268.309 3
 6 3 5 6798.59 279.021 7
 -6 -3 6 3122.1 251.28 1
 6 -3 -6 3082.4 187.286 3
 6 -3 -6 3240.54 206.652 6
 6 -3 -6 3104.38 195.594 4
 6 3 6 3311.95 195.025 7
 -6 -3 6 3406.78 237.103 8
 -6 -3 6 3505.43 317.926 2
 -6 3 -6 2954.95 188.886 5
 -6 -3 7 8127.81 366.749 8
 6 -3 -7 8404.72 328.479 6
 -6 3 -7 8661.6 453.07 3
 -6 -3 7 7449.5 376.384 1
 -6 3 -7 7212.78 297.377 5
 6 -3 -7 7737.73 292.387 3
 -6 -3 7 9120.7 525.642 2
 6 -3 -7 8666.61 322.034 4
 6 3 7 7819.13 288.197 7
 -6 -3 8 335.048 90.0231 8
 6 -3 -8 285.514 71.4155 4
 -6 -3 8 273.133 123.932 2
 6 -3 -8 348.624 74.4038 3
 -6 3 -8 530.686 131.076 3
 -6 3 -8 342.999 79.3821 5
 6 -3 -8 360.51 85.6712 6
 6 3 8 385.427 81.3805 7
 -6 -3 8 384.711 107.29 1
 6 3 9 13368.9 387.676 7
 6 -3 -9 14551.7 424.845 4
 -6 -3 9 13282.9 471.337 8
 -6 3 -9 13805.5 416.957 5
 6 -3 -9 14008.6 439.355 6
 6 -3 -10 924.264 116.577 4
 6 3 10 834.109 80.8678 1
 6 -3 -10 910.652 121.303 6
 6 3 10 792.829 96.6184 7
 6 -3 -10 782.897 104.794 3
 -6 3 -10 787.358 139.769 3
 -6 -3 10 777.454 136.865 1
 -6 3 -10 874.031 108.131 5
 -6 -3 10 767.686 125.573 8
 -6 -3 10 794.038 183.211 2
 -6 -3 11 10887.1 442.966 8
 -6 -3 11 9726.39 565.145 2
 6 -3 -11 9648.97 352.939 3
 6 -3 -11 8958.24 368.368 6
 -6 3 -11 11118.6 371.258 5
 -6 -3 11 9646.42 444.576 1
 -6 3 -11 9239.14 422.094 3
 6 -3 -11 11175.7 386.96 4
 6 3 11 9140.35 358.962 1
 6 3 12 296.72 76.0855 8
 6 -3 -12 412.657 84.8691 3
 6 3 12 383.093 73.6186 7
 -6 -3 12 263.008 89.0932 1
 6 3 12 402.056 92.5855 1
 -6 3 -12 355.384 98.8998 3
 -6 3 -12 323.111 80.2092 5
 6 -3 -12 361.336 82.7963 4
 -6 3 -12 429.861 83.3894 6
 6 -3 -13 7041.23 309.322 4
 6 3 13 5674.28 297.834 1
 6 3 13 6495.72 298.596 8
 6 -3 -13 6002.61 274.731 3
 -6 3 -13 6716.04 297.926 6
 -6 -3 13 6042.49 448.743 2
 6 3 13 6280.83 272.966 7
 -6 3 -13 6766.49 363.539 3
 -6 -3 13 7723.52 394.042 1
 -6 3 -13 6585.8 307.287 5
 6 3 14 731.995 115.631 1
 -6 3 -14 893.021 120.798 5
 6 -3 -14 758.559 108.254 4
 6 3 14 763.187 102.488 7
 -6 -3 14 562.563 155.215 2
 -6 3 -14 724.035 106.137 6
 -6 4 14 56.7627 86.4822 2
 -6 4 14 47.628 43.981 8
 6 4 -14 48.0747 47.5318 4
 6 -4 14 34.3484 52.4954 1
 -6 -4 -14 137.621 65.8946 3
 6 -4 14 31.6526 41.3359 7
 -6 -4 -14 79.1181 58.7311 5
 6 4 -14 60.3644 51.7276 6
 -6 -4 -13 5652.95 300.135 3
 -6 4 13 5365.73 254.776 8
 6 -4 13 5133.2 281.108 1
 -6 4 13 5188.39 402.379 2
 -6 -4 -12 217.412 76.3542 5
 -6 4 12 122.182 91.3183 2
 -6 4 12 109.238 56.1047 8
 6 -4 12 182.946 65.9089 4
 6 4 -12 131.068 54.3273 4
 6 4 -12 163.074 63.2111 6
 -6 -4 -12 148.691 71.6721 3
 6 -4 12 98.5308 53.5898 7
 6 -4 12 89.9711 60.5904 1
 6 4 -11 14632 424.988 6
 6 -4 11 12903 452.245 1
 -6 -4 -11 14496.5 478.847 3
 -6 4 11 13331.6 397.434 8
 6 -4 11 11991.9 430.439 7
 -6 -4 -11 14035.8 489.08 5
 6 -4 10 194.338 62.083 4
 6 4 -10 207.904 63.7532 4
 6 4 -10 127.379 61.1815 6
 6 -4 10 483.456 86.5324 7
 -6 -4 -10 164.159 68.1349 5
 -6 4 10 177.605 60.4536 8
 -6 -4 -10 212.795 87.7562 3
 -6 4 10 127.083 94.9229 2
 -6 -4 -10 213.629 69.5551 2
 6 -4 10 175.818 73.8303 1
 -6 -4 -9 18503.9 551.428 2
 6 -4 9 16654.4 504.362 1
 -6 4 9 16469.9 695.033 2
 6 4 -9 19502.9 495.891 6
 -6 4 9 18731.7 472.976 8
 6 4 -9 16124.4 433.33 4
 -6 -4 -8 370.877 87.1408 2
 -6 -4 -8 475.349 94.8413 5
 6 -4 8 293.814 92.6738 1
 -6 4 8 514.963 147.356 2
 6 4 -8 379.171 76.1583 4
 6 -4 8 249.674 66.1187 7
 -6 -4 -7 34814.4 725.606 2
 -6 -4 -7 35486.3 675.778 5
 -6 4 7 34334.5 635.121 8
 6 4 -7 34696.7 642.846 6
 6 -4 7 36503.9 732.354 1
 6 -4 7 33886.6 662.726 4
 -6 4 7 33333.2 983.71 2
 6 4 -7 31544.1 614.428 4
 -6 -4 -7 33707.5 766.552 3
 -6 -4 -6 1041.47 131.925 2
 -6 4 6 942.736 113.114 8
 6 4 -6 995.398 110.59 4
 6 4 -6 1024.75 114.636 6
 6 -4 6 1049.65 117.629 1
 6 -4 6 971.53 117.983 4
 -6 -4 -6 1158.27 153.499 3
 6 -4 6 737.717 94.5408 7
 -6 4 6 793.101 167.834 2
 -6 4 5 47658.3 755.92 8
 6 -4 5 45752.1 715.854 4
 -6 -4 -5 50223.1 967.388 3
 6 -4 5 44626.6 673.445 7
 6 4 -5 41511.8 666.213 4
 -6 -4 -5 41997.3 683.076 5
 -6 4 5 44224.4 1096.25 2
 -6 -4 -5 49391.5 882.574 2
 -6 4 4 2413.15 259.67 2
 6 -4 4 2580.94 175.719 4
 6 4 -4 2275.69 154.454 4
 -6 -4 -4 2563.33 201.918 2
 -6 -4 -4 2571.91 227.639 3
 6 -4 4 2443.39 123.933 1
 -6 -4 -4 2455.02 161.308 5
 6 -4 4 2046.79 136.756 7
 -6 4 4 2472.54 177.358 8
 -6 -4 -3 92246.7 1344.43 3
 6 4 -3 92135.9 1002.67 6
 -6 -4 -3 89026.9 1212.58 2
 -6 4 3 89978.7 1043.1 8
 6 -4 3 73121.3 779.36 7
 -6 4 3 76072.1 1365.04 2
 6 4 -3 88020.6 1064.23 7
 6 4 -3 98055.7 955.06 4
 6 -4 3 62746.6 615.39 1
 -6 4 2 14273.6 401.538 5
 6 -4 2 14672.2 402.365 4
 6 4 -2 14643.2 383.031 6
 -6 -4 -2 14782.6 482.797 2
 -6 4 2 12906 536.264 2
 6 4 -2 14205.4 428.813 7
 -6 4 2 14176.1 422.154 8
 6 -4 2 12973.3 309.96 7
 -6 -4 -2 13296.9 363.001 5
 -6 -4 -2 11497.5 513.969 3
 -6 -4 -1 78142.9 1174.23 2
 -6 4 1 77367.2 1128.47 2
 6 4 -1 80656.5 1004.05 7
 -6 -4 -1 76805.6 806.824 5
 6 4 -1 73359.9 860.185 6
 -6 4 1 68547.2 872.365 5
 6 -4 1 68804.8 886.405 4
 -6 4 1 79719.6 978.256 8
 6 4 -1 71390.5 830.217 4
 6 4 0 11259.3 300.96 4
 6 -4 0 9977.26 336.033 4
 -6 -4 0 11852.9 451.237 2
 6 4 0 12673.6 369.02 6
 -6 4 0 12438.9 389.048 8
 -6 -4 0 11066.4 295.388 5
 -6 4 0 13380.5 385.614 5
 6 4 0 11809.6 369.436 7
 6 -4 -1 76002.3 907.272 4
 -6 -4 1 85807.9 1265.49 2
 6 4 1 82907.3 886.833 6
 -6 -4 1 81825.1 1192.3 8
 -6 4 -1 85051.7 965.601 5
 6 4 1 88566.9 1042.78 7
 6 -4 -1 92809.7 1049.04 6
 6 -4 -2 14536 406.172 4
 -6 -4 2 13824.5 536.429 2
 -6 4 -2 13749.4 395.167 5
 -6 -4 2 12895 466.715 8
 -6 4 -2 13289.9 413.434 8
 6 -4 -2 13056.8 360.883 3
 6 4 2 14088.4 410.004 7
 -6 -4 2 15109.7 527.72 1
 -6 -4 3 87842.1 1205.01 8
 6 -4 -3 124382 1210.37 6
 6 -4 -4 2574.61 178.131 6
 -6 4 -4 2659.42 183.381 5
 -6 -4 4 2704.33 258.484 2
 -6 -4 4 3027.73 235.072 8
 6 -4 -4 3049.91 194.239 3
 6 4 4 2836.48 185.177 7
 -6 -4 4 2651.34 233.371 1
 -6 -4 5 49283.4 1111.58 2
 -6 -4 5 48519.1 955.057 1
 6 -4 -5 48821.2 731.235 3
 6 4 5 47528 739.517 7
 -6 -4 6 1230.94 157.195 8
 -6 -4 6 1220.35 196.621 2
 6 4 6 1431.5 138.541 7
 6 -4 -6 1382.01 154.949 4
 -6 -4 6 1449.48 178.9 1
 6 -4 -6 1353 128.463 3
 -6 4 -6 1687.86 150.482 5
 -6 -4 7 40448.8 841.812 8
 6 -4 -7 45527.2 931.046 6
 -6 -4 7 29979.2 942.219 2
 6 -4 -7 39681.2 708.555 4
 -6 4 -7 32271.1 633.995 5
 6 4 7 34698.7 630.861 7
 6 -4 -7 32754.5 609.782 3
 -6 -4 7 38535.1 867.747 1
 -6 4 -8 445.937 127.674 3
 -6 -4 8 468.398 103.141 8
 6 -4 -8 324.269 91.4337 6
 6 4 9 18750.6 352.887 1
 6 4 9 19439.5 474.485 7
 6 -4 -9 18601.2 529.537 6
 6 -4 -9 16746.3 445.445 3
 -6 -4 9 18523.3 595.4 8
 -6 -4 9 20795.5 811.301 2
 -6 -4 9 15922.4 563.432 1
 -6 4 -9 20335.3 501.408 5
 6 -4 -10 132.91 65.4171 6
 -6 4 -10 151.12 58.8374 5
 -6 4 -10 164.718 87.879 3
 6 -4 -10 144.828 60.706 3
 6 -4 -10 201.455 66.5144 4
 6 4 10 131.19 48.1545 7
 -6 -4 10 177.357 77.3693 8
 -6 -4 10 172.422 79.0983 1
 6 4 10 156.1 45.7612 1
 -6 -4 11 11678.6 498.051 8
 -6 4 -11 11522 469.242 3
 6 4 11 12106.4 372.457 7
 6 4 12 134.914 57.2891 8
 6 4 12 107.521 66.3779 1
 -6 -4 12 133.563 77.0254 1
 6 -4 -12 82.5841 55.9171 4
 -6 4 -12 162.684 61.3905 5
 -6 4 -12 90.8442 57.6049 6
 6 -4 -12 131.008 58.3244 3
 -6 -4 12 90.3355 97.3011 2
 6 4 12 124.815 52.7382 7
 6 4 13 4491.52 234.616 7
 6 4 13 3920.91 251.92 1
 -6 -4 14 62.6919 67.1511 1
 -6 4 -14 78.9509 52.2946 6
 6 4 14 73.3206 45.2382 8
 6 -4 -14 59.1241 47.7354 3
 -6 4 -14 19.9338 48.804 5
 6 -4 -14 90.008 52.8091 4
 -6 -4 14 82.7887 88.7535 2
 6 -5 14 840.365 132.512 7
 -6 5 13 2199.92 162.304 8
 -6 5 13 2146.39 261.252 2
 -6 -5 -13 2216.17 208.092 5
 6 -5 13 2622.77 215.035 7
 6 -5 13 1899.93 177.105 1
 -6 -5 -13 2493.3 205.7 3
 6 5 -13 2377.61 172.243 4
 6 5 -13 2392.07 178.998 6
 6 5 -12 1258.8 129.723 4
 -6 5 12 1405.71 213.314 2
 -6 -5 -12 1348.75 154.848 3
 6 5 -12 1275.45 135.449 6
 -6 5 12 1403.23 133.275 8
 6 -5 12 1395.89 137.325 4
 6 -5 12 1154.59 140.038 7
 -6 -5 -12 1352.31 163.873 5
 6 -5 12 1552.39 161.958 1
 6 -5 11 5245.2 260.46 4
 6 5 -11 4412.28 232.386 4
 -6 5 11 4719.31 232.834 8
 6 5 -11 4819.43 258.231 6
 -6 -5 -11 4891.49 289.467 3
 -6 -5 -11 3750.27 249.619 2
 6 -5 11 4763.67 273.812 1
 -6 5 11 4234.95 368.669 2
 6 5 -10 2606.5 181.044 4
 -6 -5 -10 2620.4 220.58 5
 -6 5 10 2703.72 178.883 8
 6 -5 10 1741.55 176.939 7
 6 5 -10 2250.61 181.885 6
 -6 -5 -10 3042.62 226.772 3
 -6 -5 -10 2826.85 213.153 2
 6 -5 10 3878.36 217.174 4
 -6 5 10 2252.13 278.068 2
 -6 -5 -9 4340.68 268.031 2
 -6 5 9 3878.75 358.842 2
 -6 5 9 3987.63 215.826 8
 -6 -5 -9 4595.48 291.889 3
 -6 -5 -9 3963.5 266.058 5
 6 -5 9 4233.18 257.95 1
 6 5 -9 4113.36 222.248 4
 6 -5 9 3660.34 222.372 4
 6 -5 8 7652.09 344.549 1
 6 -5 8 6034.41 291.769 7
 -6 -5 -8 8712.01 367.333 2
 6 5 -8 6874.31 305.92 6
 -6 5 8 8894.3 318.577 8
 6 -5 8 8732.2 337.022 4
 -6 -5 -8 7681.28 355.424 5
 -6 5 8 7143.41 478.626 2
 6 5 -8 7211.39 297.436 4
 6 -5 7 6084.58 284.034 7
 6 -5 7 6267.43 284.009 4
 -6 -5 -7 5717.09 303.222 2
 6 5 -7 6334.38 275.833 4
 6 -5 7 5563.76 290.206 1
 -6 -5 -7 6131.99 336.582 3
 -6 -5 -7 5496.71 296.08 5
 -6 5 7 5181.51 395.225 2
 6 -5 6 7308.19 337.376 1
 6 5 -6 7623.93 298.278 4
 6 5 -6 8987.95 328.271 6
 -6 5 6 9482.23 528.375 2
 -6 -5 -6 11945.9 457.119 3
 -6 5 6 9867.06 340.592 8
 -6 -5 -6 10302.2 402.435 2
 6 -5 6 9879.04 348.068 7
 6 -5 5 928.96 121.446 1
 6 5 -5 898.185 104.154 4
 6 5 -5 710.494 101.379 6
 -6 5 5 824.474 168.492 2
 -6 -5 -5 1306.42 160.9 3
 -6 5 5 830.523 106.445 8
 -6 -5 -5 830.921 108.197 5
 6 -5 5 701.305 98.7018 7
 -6 -5 -5 850.247 126.663 2
 6 -5 5 952.949 115.441 4
 -6 5 4 13304.4 604.573 2
 6 -5 4 12150.1 371.262 4
 -6 -5 -4 12774.1 463.172 2
 -6 -5 -4 13790.8 496.102 3
 6 5 -4 13130.5 398.966 6
 6 -5 4 8912.58 317.523 1
 6 5 -4 10447 337.775 4
 -6 -5 -4 11823.4 358.932 5
 -6 -5 -3 25251.4 473.98 5
 -6 -5 -3 21436.6 629.205 3
 -6 -5 -3 21772.3 604.031 2
 -6 5 3 22264 508.771 5
 6 5 -3 21687.1 469.485 4
 6 5 -3 23245.6 562.239 7
 6 5 -3 26173.9 558.689 6
 6 -5 3 20785 515.524 4
 -6 5 3 20852.9 716.08 2
 6 -5 3 22003.7 374.131 1
 -6 5 3 23038.9 537.541 8
 6 -5 2 7138.63 285.343 4
 -6 5 2 7580.48 302.453 5
 6 5 -2 7430.41 314.953 7
 -6 5 2 8234.56 317.707 8
 -6 -5 -2 7831.48 382.124 2
 6 5 -2 7437.85 258.588 4
 6 -5 2 6304.69 187.861 1
 6 5 -2 7135.38 272.08 6
 -6 -5 -2 7175.45 362.666 3
 -6 -5 -1 18076.3 586.834 3
 -6 5 1 18208.4 520.05 8
 6 5 0 5442.15 252.651 6
 -6 5 0 5084.71 253.191 8
 -6 -5 1 13969.2 515.999 3
 6 5 1 20704.2 451.893 6
 -6 -5 2 5441.31 356.01 1
 6 5 2 7005.68 295.975 7
 -6 5 -2 5586.5 253.652 5
 -6 -5 2 7673.8 403.55 2
 6 -5 -2 5370.35 271.064 6
 6 -5 -2 7200.94 277.635 3
 6 5 3 21670.9 505.986 7
 -6 5 -3 22197.4 499.646 5
 6 -5 -3 23059.8 514.994 4
 -6 -5 3 20581.8 679.371 2
 -6 -5 3 20185.1 627.217 1
 6 -5 -3 21487.5 485.678 3
 6 5 4 12847.3 394.343 7
 -6 -5 4 12699.1 544.733 2
 -6 5 -4 11616.5 371.739 5
 6 -5 -4 12546.6 406.872 4
 -6 -5 4 10554.2 462.102 1
 6 -5 -4 11808 371.201 3
 6 -5 -4 10214.5 362.605 6
 -6 -5 5 367.491 106.881 1
 6 -5 -5 330.787 74.7853 3
 6 -5 -5 288.163 76.0023 4
 -6 5 -5 430.018 84.5029 5
 -6 -5 5 251.379 90.1997 8
 6 5 5 303.803 71.0285 7
 -6 -5 5 270.45 113.701 2
 -6 -5 6 8831.68 429.287 1
 -6 -5 6 10175.2 523.413 2
 6 -5 -6 9078.3 325.92 3
 -6 5 -6 10635.7 370.096 5
 -6 -5 6 9411.53 434.214 8
 6 5 6 11154.2 362.526 7
 -6 -5 7 7050.83 382.608 1
 6 -5 -7 9114.95 361.08 4
 -6 5 -7 8118.51 326.566 5
 6 -5 -7 6765.4 324.681 6
 -6 -5 7 7908.19 406.2 8
 -6 -5 7 7203.42 451.321 2
 6 5 7 8023.6 304.838 7
 6 -5 -7 6958.64 284.485 3
 -6 -5 8 9648.63 486.742 8
 6 5 8 10059.5 341.327 7
 6 -5 -8 8843.86 328.736 3
 -6 5 -8 10310.3 499.047 3
 -6 -5 8 9244.87 436.159 1
 -6 5 -9 4966.26 256.462 5
 -6 -5 9 4756.76 321.501 1
 6 -5 -9 4824.99 242.113 3
 -6 5 -9 4937.69 344.597 3
 6 5 9 4948.84 187.009 1
 6 5 9 5251.01 256.731 7
 6 -5 -10 2761.95 190.009 3
 6 -5 -10 3491.66 225.364 4
 -6 -5 10 2705.05 309.707 2
 6 5 10 2952.41 144.368 1
 -6 5 -10 2825 190.398 5
 -6 -5 10 3555.74 267.499 1
 -6 5 -10 2757.99 255.113 3
 6 5 10 2809.72 182.456 7
 6 5 11 4946.29 245.923 7
 -6 -5 11 5024.72 320.066 1
 6 -5 -11 5350.79 259.466 3
 -6 5 -11 5274.18 261.965 5
 -6 5 -11 5238.96 259.705 6
 -6 -5 11 4179.99 381.357 2
 6 5 12 1727.95 159.215 8
 -6 -5 12 1463.42 178.642 1
 6 -5 -12 1603.97 148.321 3
 -6 5 -12 1497.87 143.132 5
 6 5 12 1601.74 141.831 7
 6 -5 -12 1673.06 159.153 4
 -6 -5 12 1582.54 238.947 2
 -6 -5 13 2249.77 278.024 2
 6 -5 -13 3228.85 219.972 4
 -6 5 -13 2738.25 189.857 6
 -6 -5 13 3061.8 267.729 1
 6 5 13 2998.66 190.871 7
 6 5 13 2543.03 187.826 8
 6 -5 -13 2404.6 173.138 3
 -6 5 -13 2622.47 199.146 5
 -6 -6 -13 665.21 125.713 5
 -6 6 13 735.441 99.7932 8
 -6 -6 -13 914.499 129.958 3
 6 6 -13 678.507 100.141 6
 6 6 -13 573.841 96.072 4
 -6 6 13 605.017 149.286 2
 -6 -6 -12 2529.97 224.138 5
 -6 -6 -12 3124.55 233.808 3
 6 6 -12 2757.15 193.913 6
 6 -6 12 3088.2 202.402 4
 6 6 -12 2565.7 179.508 4
 -6 6 12 3089.48 188.112 8
 6 6 -11 1875.48 156.959 4
 6 -6 11 1626.6 167.489 1
 -6 -6 -11 1745.48 190.154 5
 -6 -6 -11 1845.57 170.55 2
 6 -6 11 1726.39 153.269 4
 6 6 -11 1273.09 143.667 6
 -6 6 11 1715.15 243.677 2
 -6 6 11 1772.88 145.338 8
 -6 -6 -11 1869.51 182.783 3
 -6 -6 -10 7306.67 343.168 2
 -6 6 10 6395.67 463.713 2
 -6 -6 -10 7038.81 361.993 5
 -6 6 10 7685.43 301.632 8
 6 6 -10 6696.63 296.744 4
 6 -6 10 6431.15 279.868 4
 6 -6 9 3316.06 234.092 1
 -6 -6 -9 4856.25 282.709 2
 6 -6 9 3872.7 228.884 4
 -6 -6 -9 4259.53 280.484 5
 6 6 -9 4112.67 229.202 4
 -6 -6 -9 4803.46 292.233 3
 -6 6 9 3745.4 373.589 2
 6 6 -8 13616.2 431.171 6
 -6 -6 -8 14179.6 495.024 5
 -6 6 8 14435.6 413.363 8
 6 -6 8 13551.3 443.961 4
 -6 -6 -8 12902.6 492.459 3
 -6 6 7 9702.92 542.469 2
 6 -6 7 10748.8 410.581 1
 6 -6 7 12077.9 390.619 4
 -6 -6 -7 11284.3 429.726 2
 6 6 -7 10033.2 359.126 4
 -6 -6 -7 9631.5 416.198 5
 -6 -6 -6 33400.8 807.32 3
 6 6 -6 34699.2 645.303 4
 -6 6 6 33860.4 638.713 8
 6 6 -6 31100.8 621.07 6
 -6 -6 -6 34688.5 743.001 2
 -6 6 6 31525.4 973.261 2
 -6 -6 -5 9211.29 402.884 3
 6 6 -5 8838.08 319.563 4
 6 -6 5 9808.45 350.487 4
 6 6 -5 8957.42 329.373 6
 -6 6 5 9436.15 343.626 8
 6 -6 5 8490.32 356.068 1
 -6 6 5 9051.22 518.616 2
 -6 6 4 41924.3 730.985 8
 6 6 -4 40573.3 721.256 6
 6 -6 4 42504.1 711.153 4
 -6 -6 -3 11837.6 450.083 3
 6 -6 3 12315.2 394.643 4
 -6 -6 -3 12019.9 446.646 2
 -6 6 3 14051.9 412 5
 6 6 -3 13451.7 437.542 7
 -6 6 3 11657.4 384.589 8
 -6 -6 -2 62468.4 1026.9 3
 6 6 -2 54511.3 953.081 7
 -6 6 2 62903.6 898.321 8
 6 -6 2 57169.6 831.639 4
 6 6 -2 53707.5 760.279 6
 -6 -6 -2 61447.8 1044 2
 -6 6 2 56809.6 833.363 5
 6 6 -1 5257.38 271.966 7
 -6 -6 -1 4403.88 275.654 3
 6 -6 1 4541.92 239.073 4
 6 6 -1 4957.96 232.504 6
 -6 6 1 5142.62 253.414 5
 -6 -6 -1 4663.83 290.482 2
 -6 6 1 4928.58 251.715 8
 -6 6 0 95496.5 1111.95 8
 -6 -6 0 89690.1 1325.79 2
 6 6 0 90765.4 1078.63 6
 6 6 0 94778.6 1106.53 7
 6 6 1 7286.08 311.557 7
 6 -6 -1 7867.07 322.358 4
 -6 -6 1 6214.11 353.135 2
 -6 6 -1 6658.09 282.949 5
 -6 -6 2 59300.5 1192.85 1
 -6 6 -2 57102.6 836.313 5
 -6 -6 2 58025.4 1108.93 2
 6 -6 -2 61794.3 880.992 4
 6 -6 -2 66000.3 858.019 3
 6 6 2 67204.1 933.156 7
 -6 -6 3 13800.2 551.213 1
 -6 -6 3 13841.8 575.489 2
 6 6 3 15617.3 442.58 7
 -6 6 -3 16227.6 441.518 5
 6 -6 -3 14876.7 411.923 3
 6 -6 -4 42709.9 730.374 3
 -6 -6 4 42292.8 928.094 1
 -6 6 -4 42327.3 736.347 5
 6 6 4 43703 744.315 7
 6 -6 -5 10304.1 385.558 4
 -6 -6 5 10033.2 507.864 2
 6 -6 -5 9428.44 364.027 6
 -6 6 -5 10661.6 369.311 5
 6 6 5 10283.6 360.691 7
 6 -6 -5 10969 359.026 3
 6 6 6 32045 625.281 7
 6 -6 -6 27919.6 642.057 6
 -6 -6 6 38415.3 896.286 8
 -6 6 -6 38663.6 711.7 5
 -6 -6 6 32231.4 927.498 2
 -6 6 -7 10383.4 375.5 5
 6 -6 -7 11784 374.358 3
 6 6 7 12196.4 384.997 7
 -6 -6 7 10137.6 454.163 8
 -6 -6 7 12809.3 519.752 1
 -6 -6 8 14046.6 635.478 2
 -6 6 -8 13261.5 421.811 5
 6 -6 -8 14330.9 417.069 3
 -6 -6 8 14907.5 558.208 1
 -6 -6 8 12421.3 532.299 8
 -6 6 -9 3577.91 310.506 3
 6 -6 -9 5910.7 302.207 4
 6 6 9 5336.69 259.758 7
 6 6 9 4210.81 185.914 1
 -6 6 -9 5386.05 281.095 5
 -6 -6 9 4661.34 382.944 2
 -6 -6 9 4794.11 318.332 1
 6 -6 -9 4798.26 243.968 3
 6 6 10 6218.57 271.317 7
 6 -6 -10 6510.16 281.58 3
 -6 -6 10 6580.46 375.96 1
 6 6 10 6390.13 215.626 1
 6 6 11 1792.84 160.649 8
 -6 6 -11 1797.11 156.901 5
 -6 -6 11 1701.86 240.335 2
 6 -6 -11 1718.88 174.454 4
 -6 6 -11 1855.07 162.54 6
 6 6 11 1800.58 150.086 7
 -6 -6 12 2456.95 284.175 2
 -6 6 -12 2845.67 198.374 6
 6 6 13 658.046 93.5746 7
 -6 -6 13 584.922 123.984 1
 6 -6 -13 632.635 113.076 4
 6 6 13 511.932 89.8696 8
 6 -6 -13 658.755 96.336 3
 -6 6 -13 584.1 95.2639 6
 -6 6 -13 715.251 108.279 5
 -6 -6 13 648.234 156.459 2
 6 7 -12 2971.74 201.963 6
 -6 -7 -12 3654.07 252.556 3
 -6 7 12 3408.74 197.514 8
 -6 7 12 2603.6 303.89 2
 6 7 -12 2972.44 201.528 4
 6 -7 12 3535.75 249.878 1
 -6 -7 -11 533.903 111.3 3
 6 7 -11 191.456 72.2316 6
 6 -7 11 306.153 90.3499 1
 6 7 -11 287.226 72.9067 4
 -6 7 11 340.494 126.53 2
 -6 -7 -11 302.271 81.8005 2
 6 -7 11 323.611 75.4641 4
 6 -7 10 7053.67 293.581 4
 6 7 -10 6562.72 291.302 4
 6 -7 10 7075.61 341.492 1
 -6 -7 -10 6942.37 327.321 2
 -6 7 10 6151.65 469.763 2
 -6 7 10 6638.39 282.335 8
 -6 -7 -10 7753.82 363.293 3
 6 -7 9 959.045 139.25 1
 -6 -7 -9 1142.83 145.759 3
 -6 7 9 794.241 190.615 2
 6 -7 9 859.928 113.808 4
 -6 -7 -9 940.839 134.263 2
 6 7 -9 752.704 106.605 4
 6 7 -8 7904.2 332.121 6
 -6 7 8 9649.22 342.858 8
 -6 -7 -8 9897.83 415.573 3
 6 -7 8 11059.2 379.524 4
 -6 7 8 8888.62 559.84 2
 -6 -7 -8 9532.96 382.486 2
 6 -7 8 8603.04 373.352 1
 6 7 -7 1132.56 131.853 6
 -6 -7 -7 1047.37 145.612 3
 6 -7 7 870.572 131.712 1
 6 -7 7 995.267 123.156 4
 -6 -7 -7 1157.6 147.014 2
 -6 7 7 1069.98 119.371 8
 6 -7 6 13300 464.204 1
 6 -7 6 12877.3 411.088 4
 6 -7 5 2067.03 187.714 1
 -6 7 5 1902.09 157.438 8
 6 7 -5 1896.68 161.567 6
 -6 -7 -5 1953.3 196.911 3
 6 7 -4 10383.1 398.526 7
 -6 7 4 10687.2 383.727 8
 -6 -7 -4 11007.9 446.924 3
 -6 -7 -4 11897.1 477.081 2
 6 7 -4 12073.2 400.631 6
 6 7 -3 1629.63 151.912 6
 -6 7 3 1871.02 161.596 8
 6 7 -3 2008.68 180.536 7
 6 -7 3 1995.26 162.198 4
 -6 -7 -3 1492.09 176.832 3
 -6 -7 -3 2028.93 195.662 2
 -6 7 3 1743.69 158.788 5
 -6 -7 -2 4330.11 274.322 3
 6 7 -2 5111 243.252 6
 6 -7 2 4814.79 262.616 4
 -6 -7 -2 4815.78 301.808 2
 -6 7 2 5871.39 280.226 5
 6 7 -2 5478.81 288.233 7
 -6 7 2 4632.44 258.13 8
 -6 -7 -1 4942.63 333.462 2
 6 7 -1 5020.5 274.387 7
 -6 7 1 4329.68 241.631 5
 6 7 0 7437.17 331.32 7
 6 -7 0 6750.82 310.133 4
 -6 -7 0 6677.34 362.317 2
 -6 7 0 7186.01 303.494 5
 6 7 1 4200.62 245.825 7
 -6 -7 1 4513.02 315.615 2
 -6 7 -2 4499.56 237.587 5
 6 7 2 4352.51 251.365 7
 -6 -7 2 4475.58 311.138 2
 6 7 3 1737.24 159.831 7
 -6 -7 3 1753.13 208.554 1
 -6 7 -3 1767.89 154.28 5
 6 -7 -3 1758.82 151.515 3
 6 -7 -3 2043.05 170.886 4
 -6 -7 4 8294.64 450.846 2
 -6 7 -4 9058.38 342.497 5
 -6 -7 4 9365.61 457.385 1
 6 -7 -4 8890.11 350.119 4
 -6 7 -5 1689.63 156.722 5
 -6 -7 5 1849.9 224.361 2
 6 -7 -5 2116.61 180.626 4
 6 7 5 1755.91 152.246 7
 6 7 6 14242.4 424.429 7
 -6 7 -6 16302.9 471.847 5
 6 -7 -6 12804 396.418 3
 -6 -7 6 11897.7 531.82 8
 -6 -7 6 14589 575.579 1
 -6 -7 7 942.307 158.134 1
 6 7 7 1085.45 120.314 7
 -6 7 -7 743.666 111.304 5
 6 -7 -7 1107.77 139.244 4
 -6 -7 7 1026.09 182.25 2
 6 -7 -7 944.675 114.663 3
 -6 -7 8 9041.7 516.251 2
 6 7 8 9455.36 334.138 7
 6 -7 -8 9665.2 340.487 3
 -6 7 -8 9674.25 368.302 5
 -6 -7 8 8679.27 450.916 1
 6 -7 -9 999.051 133.27 4
 -6 -7 9 954.566 158.716 1
 -6 7 -9 971.721 147.634 5
 6 -7 -9 787.241 105.881 3
 -6 -7 9 780.74 170.948 2
 6 -7 -10 6556.42 324.056 4
 6 -7 -10 6849.93 288.935 3
 6 7 10 7099.37 293.988 7
 -6 7 -10 7415.94 314.247 5
 -6 -7 10 6606.16 450.268 2
 -6 -7 10 7158.61 391.455 1
 6 -7 -11 277.268 82.1365 4
 6 7 11 319.74 82.5506 8
 -6 -7 11 321.238 103.029 1
 -6 7 -11 307.439 76.7476 5
 -6 7 -11 315.837 80.8329 6
 -6 -7 11 337.25 120.856 2
 6 -7 -11 352.693 77.4219 3
 6 7 11 356.5 71.68 7
 -6 -7 12 3446.85 344.932 2
 -6 7 -12 3285.9 213.329 5
 6 -7 -12 3595.44 210.987 3
 -6 -7 12 3872.87 286.632 1
 6 7 12 3717.46 213.728 7
 -6 7 -12 3242.71 223.907 6
 6 7 12 3705.42 227.897 8
 6 8 -12 1259.36 136.806 6
 6 -8 12 1157.05 149.323 1
 -6 -8 -12 1262.84 161.026 3
 -6 8 12 1312.9 127.967 8
 6 8 -11 449.957 92.6782 6
 6 -8 11 361.628 93.3118 1
 -6 8 11 574.375 85.93 8
 -6 -8 -11 614.026 116.749 3
 -6 -8 -11 509.715 96.903 2
 6 -8 11 588.498 95.5229 4
 6 -8 10 3476.32 249.869 1
 6 -8 10 4189.47 230.406 4
 -6 -8 -10 4242.53 275.14 3
 -6 8 10 3917.62 218.508 8
 6 8 -10 3317.3 221.379 6
 -6 -8 -10 3269.02 236.772 2
 6 8 -9 2579.74 197.091 6
 -6 -8 -9 3554.79 245.362 2
 6 -8 9 2908.46 233.928 1
 -6 8 9 3097.65 196.172 8
 -6 -8 -9 3398.62 251.183 3
 6 -8 9 2501.85 180.578 4
 6 8 -8 9923.86 364.784 6
 -6 8 8 9155.59 335.578 8
 -6 -8 -8 9362.75 394.298 2
 6 -8 8 6432.45 346.304 1
 -6 -8 -8 10361.8 429.524 3
 6 -8 8 12990.6 415.907 4
 -6 8 7 6321.83 280.708 8
 6 -8 7 5831.74 327.35 1
 6 8 -7 6335.63 295.276 6
 -6 -8 -7 6513.33 328.397 2
 -6 -8 -7 6034.62 344.93 3
 6 -8 6 15012.2 513.25 1
 -6 -8 -6 17121.4 539.476 2
 6 8 -6 15295.9 458.989 6
 -6 8 6 16807.7 466.861 8
 -6 -8 -5 9804.43 416.431 3
 -6 -8 -5 9714.2 409.42 2
 6 8 -5 10900.7 377.401 6
 6 8 -5 10593 418.576 7
 -6 8 5 9659.72 362.677 8
 -6 -8 -4 28591.6 712.857 2
 6 -8 4 30398.5 632.617 4
 6 8 -4 32517.4 676.742 6
 -6 8 4 32520.9 686.111 8
 6 8 -4 30717.2 709.952 7
 -6 -8 -2 39706.3 846.958 2
 6 8 -2 39907.7 790.583 7
 6 8 -1 11212 418.136 7
 6 -8 1 11616.4 397.654 4
 -6 -8 -1 12377.1 494.576 2
 -6 8 0 46954.6 798.562 5
 -6 -8 0 43051.5 956.045 2
 -6 8 -1 10943.5 381.023 5
 -6 -8 1 11371.4 482.105 2
 6 8 1 10909.3 402.997 7
 6 -8 -1 11743.3 430.649 4
 -6 -8 2 37181.5 923.204 2
 6 8 2 36625 721.207 7
 6 -8 -2 36711.9 661.411 3
 -6 8 -3 16835.2 476.194 5
 6 8 3 16951.2 493.052 7
 -6 -8 3 15284.2 594.063 2
 6 -8 -3 14569.5 469.252 4
 6 -8 -4 35746.7 725.044 4
 6 -8 -4 34840.1 669.158 3
 -6 -8 5 7266.4 424.279 1
 6 8 5 7667.5 318.184 7
 6 -8 -5 8003.73 319.272 3
 -6 -8 5 7519.95 436.947 2
 -6 -8 6 15996.5 655.384 2
 -6 8 -6 17517.6 492.474 5
 6 -8 -6 18863.9 486.243 3
 6 8 6 14341.1 442.129 7
 -6 -8 6 22795.1 706.448 1
 6 -8 -6 26489.1 636.564 4
 -6 -8 7 4756.05 371.327 2
 -6 8 -7 3528.23 228.46 5
 6 -8 -7 5625.63 267.167 3
 6 -8 -7 3997.37 260.193 4
 6 8 7 5401.45 267.772 7
 -6 -8 7 5713.82 366.182 1
 -6 -8 8 8646.27 444.188 1
 6 -8 -8 9849.05 347.628 3
 6 -8 -8 7655.46 352.596 4
 -6 -8 8 8723.69 512.346 2
 6 8 8 8321.66 327.394 7
 -6 8 -8 9951.58 382.802 5
 -6 8 -9 2100.91 178.085 5
 6 8 9 2387.02 180.385 7
 -6 -8 9 2011.73 272.483 2
 6 -8 -9 2487.52 178.412 3
 -6 -8 9 2714.52 255.665 1
 6 8 10 3308.53 202.776 7
 -6 -8 10 3414.69 273.991 1
 -6 -8 10 3437.53 339.865 2
 -6 8 -10 3360.62 220.501 6
 6 -8 -10 3274.54 201.551 3
 -6 8 -10 2916.49 203.263 5
 6 -8 -11 406.334 80.1184 3
 6 8 11 462.698 89.8946 8
 -6 8 -11 331.646 81.5814 5
 6 8 11 394.557 76.5328 7
 -6 -8 11 408.018 118.424 1
 -6 8 -11 486.126 94.0133 6
 -6 8 -12 1269.37 135.935 6
 -6 -8 12 1270.53 180.463 1
 6 8 12 1388.77 141.225 8
 6 -8 -12 1249.6 128.422 3
 6 8 12 994.452 118.893 7
 -6 9 11 1474.9 136.274 8
 6 -9 11 1303.21 134.588 4
 -6 -9 -11 1578.76 175.534 3
 6 -9 11 1286.07 160.324 1
 -6 -9 -11 1354.49 146.174 2
 6 9 -11 1435.71 149.349 6
 6 9 -10 1081.49 132.826 6
 6 -9 10 1046.91 122.807 4
 -6 -9 -10 1126.59 149.61 3
 -6 -9 -10 1180.25 148.736 2
 -6 9 10 1178.07 125.703 8
 -6 -9 -9 3598.08 259.896 3
 6 -9 9 2774.27 188.357 4
 6 -9 9 2963.65 244.784 1
 6 9 -9 3471.61 224.329 6
 -6 -9 -9 3136.93 229.163 2
 -6 9 9 3381.63 206.523 8
 -6 9 8 1602.39 147.391 8
 6 9 -8 1661.64 165.073 6
 -6 -9 -8 1636.11 174.855 2
 -6 -9 -8 1579.37 182.319 3
 6 -9 8 1625.08 156.943 4
 -6 9 7 4715.21 253.159 8
 -6 -9 -7 4991.61 291.896 2
 6 9 -7 4925.67 264.954 6
 -6 -9 -7 5527.23 327.455 3
 -6 -9 -6 2350.63 206.952 2
 6 9 -6 2890.64 227.578 7
 6 9 -6 2335.5 186.644 6
 -6 9 6 2221.28 178.006 8
 6 -9 6 2566.48 191.597 4
 -6 9 5 3293.64 224.771 5
 -6 -9 -5 3304.96 244.637 2
 6 -9 5 3469.95 221.862 4
 6 9 -4 1238.27 150.513 7
 -6 -9 -4 1083.41 146.68 2
 6 -9 4 1530.69 154.742 4
 -6 9 3 4551.81 257.56 5
 6 9 -3 4004.54 260.566 7
 -6 -9 -3 4133.99 286.768 2
 6 -9 3 4226.2 244.585 4
 6 9 -2 555.156 103.861 7
 -6 9 2 413.684 89.8309 5
 6 -9 2 737.276 107.142 4
 -6 9 1 1940.97 171.447 5
 6 9 -1 1842.26 175.497 7
 -6 -9 -1 1695.27 188.436 2
 -6 -9 0 324.757 102.126 2
 6 9 0 281.974 77.0989 7
 -6 -9 1 1872.7 214.403 2
 6 9 1 2061.01 182.265 7
 -6 9 -2 680.392 102.845 5
 -6 -9 2 550.604 121.217 2
 6 -9 -2 595.37 97.3191 3
 6 9 2 790.318 114.567 7
 6 9 3 4023.72 245.883 7
 -6 9 -3 3536.34 227.12 5
 -6 -9 3 3608.9 300.259 2
 6 -9 -3 3859.57 224.859 3
 -6 -9 3 3035.37 308.53 1
 -6 -9 4 1277.6 186.307 1
 6 9 4 1562.82 155.274 7
 -6 9 -4 1514.44 150.655 5
 6 -9 -4 1096.38 130.937 4
 6 -9 -4 1417.51 144.049 3
 -6 -9 4 1068.09 173.611 2
 6 9 5 2915.29 205.983 7
 -6 -9 5 3545.38 294.311 1
 -6 -9 5 2392.12 251.131 2
 6 -9 -5 3403.89 238.413 4
 -6 9 -5 3927.63 243.103 5
 -6 9 -6 2512.1 192.825 5
 6 9 6 2509.01 195.566 7
 -6 -9 6 3280.22 277.988 1
 6 -9 -6 2771.08 214.964 4
 6 -9 -6 3098.64 204.93 3
 -6 -9 6 2530.87 262.992 2
 -6 9 -7 4787.88 263.57 5
 -6 -9 7 4538.95 328.498 1
 6 -9 -7 3596.92 246.1 4
 6 -9 -7 4790.16 250.293 3
 -6 -9 7 4309.87 355.61 2
 -6 -9 8 1622.31 224.555 2
 -6 -9 8 2077.28 234.088 1
 -6 9 -8 2355.46 195.259 5
 6 -9 -8 1949.34 160.451 3
 6 9 8 2168.01 171.685 7
 6 9 9 2549.18 188.762 7
 6 -9 -9 2758.91 189.045 3
 6 -9 -10 1295.42 130.965 3
 -6 -9 10 1297.53 179.459 1
 6 9 10 1179.17 129.337 7
 6 9 10 1618.53 157.402 8
 -6 9 -10 1454.42 149.672 6
 6 -9 -11 1473.03 138.25 3
 -6 -9 11 1799.84 202.459 1
 6 9 11 1542.9 150.072 8
 -6 9 -11 1257.6 148.471 6
 6 9 11 1307.31 133.842 7
 6 10 -10 331.125 85.9914 6
 -6 -10 -10 430.064 91.0686 2
 -6 10 10 417.552 81.8231 8
 6 10 -9 3104.52 217.207 6
 -6 -10 -9 2368.54 210.793 2
 -6 10 9 2785.91 197.216 8
 6 -10 9 2558.62 187.115 4
 -6 -10 -8 917.676 142.004 2
 -6 10 8 835.131 116.024 8
 6 10 -8 1120.54 152.149 7
 6 -10 8 703.666 105.208 4
 6 10 -7 7412.59 365.216 7
 -6 -10 -7 6169.59 322.237 2
 -6 10 6 2606.63 203.544 5
 6 10 -6 2389.52 209.71 7
 -6 -10 -6 2743.34 221.054 2
 6 -10 6 2930.33 206.306 4
 -6 10 4 2570.22 201.41 5
 6 10 -4 2699.8 223.146 7
 -6 -10 -4 2609.65 222.988 2
 -6 10 3 19977.9 542.971 5
 6 10 -3 20843.4 608.231 7
 -6 -10 -3 21016.7 632.918 2
 6 -10 3 22414.3 576.01 4
 -6 10 2 3433.43 229.667 5
 6 10 -2 3430.61 244.922 7
 -6 -10 -2 3201.69 266.117 2
 6 -10 2 3702.45 232.002 4
 6 10 -1 29940.3 731.027 7
 -6 -10 -1 28349.2 773.672 2
 6 10 0 1974.47 189.215 7
 6 -10 0 2170.34 186.251 4
 -6 -10 0 2027.15 208.985 2
 -6 10 0 2263.54 184.319 5
 6 10 1 26873.5 658.325 7
 6 -10 -1 26327.7 639.718 4
 -6 -10 1 27899.1 789.704 2
 6 10 2 3460.12 232.317 7
 6 -10 -2 2896.84 218.312 4
 -6 10 -3 17052.9 510.883 5
 -6 -10 3 17410.5 640.492 2
 6 -10 -3 17125 531.047 4
 6 10 3 18346.6 524.668 7
 6 10 4 2936.75 223.418 7
 -6 10 -4 3028.6 217.179 5
 -6 -10 4 3364.22 294.985 2
 6 -10 -4 3085.3 207.479 3
 -6 -10 4 3090.73 283.73 1
 -6 10 -5 12400.1 442.061 5
 6 10 5 13177.3 446.805 7
 -6 -10 5 12095.2 581.194 2
 6 10 6 3042.55 214.005 7
 6 -10 -6 3554.66 231.925 3
 -6 -10 6 2897.59 279.192 1
 6 10 7 6115.83 288.76 7
 6 -10 -7 6522.67 297.073 3
 -6 -10 8 1279.35 182.813 1
 6 -10 -8 1106.92 127.715 3
 6 10 8 954.639 124.991 7
 -6 10 -8 695.515 123.659 6
 -6 -10 9 3345.18 282.15 1
 6 10 9 2760.02 194.63 7
 6 10 9 3218.52 219.034 8
 -6 10 -9 3056.12 212.721 6
 6 -10 -9 3055.76 199.666 3
 -6 -10 10 757.015 142.506 1
 -6 10 -10 417.164 91.7712 6
 6 10 10 573.184 100.065 8
 6 -10 -10 504.681 90.1496 3
 6 -11 9 1057.42 128.313 4
 -6 -11 -9 1327.98 161.335 2
 6 11 -8 676.741 119.853 7
 6 -11 8 538.953 91.9952 4
 -6 11 8 648.673 108.813 5
 -6 -11 -8 569.129 105.344 2
 6 11 -7 2279.25 207.686 7
 -6 -11 -7 2032.84 199.799 2
 6 11 -6 494.468 111.869 7
 -6 -11 -6 409.038 98.4429 2
 6 -11 6 452.155 90.2657 4
 -6 11 6 540.642 106.869 5
 -6 -11 -5 3608.36 261.379 2
 6 11 -5 3939.52 274.154 7
 -6 -11 -4 3.73053 56.8376 2
 -6 11 4 115.348 62.5582 5
 6 11 -4 117.306 68.1707 7
 6 -11 4 178.513 70.3438 4
 -6 11 3 4266.09 282.372 5
 -6 -11 -3 4256.28 292.155 2
 6 11 -3 4644.54 293.81 7
 6 -11 2 750.904 119.742 4
 -6 11 2 770.44 120.183 5
 -6 -11 -1 2864.57 265.556 2
 -6 11 1 2296.41 197.429 5
 6 11 -1 3078.64 239.134 7
 -6 11 0 1102.11 138.153 5
 -6 -11 0 936.308 165.277 2
 6 11 0 1347.86 161.646 7
 6 -11 0 1032.81 134.915 4
 -6 11 -1 2949.99 215.022 5
 -6 -11 1 2843.86 254.764 2
 6 11 1 2776.17 227.663 7
 6 -11 -1 2285.04 201.258 4
 -6 11 -2 730.771 117.515 5
 6 -11 -2 519.597 114.087 4
 6 11 2 803.196 123.87 7
 -6 -11 2 708.612 138.955 2
 -6 -11 3 4433.12 334.789 2
 6 -11 -4 134.992 59.8714 3
 -6 -11 4 176.188 99.8193 1
 6 11 4 138.186 60.1538 7
 -6 -11 5 4190.62 333.15 1
 6 -11 -5 3928.75 236.583 3
 6 11 5 3410.69 230.939 7
 -6 -11 6 284.134 116.251 1
 6 11 6 348.725 79.3051 7
 6 -11 -6 380.441 88.3256 3
 -6 -11 7 1747.31 225.306 1
 6 -11 -7 2547.89 200.878 3
 -6 -11 8 342.438 122.522 1
 6 11 8 406.301 89.9762 8
 6 -11 -8 561.682 99.0974 3
 -6 11 -8 322.952 94.3522 6
 6 11 9 1457.87 154.969 8
 6 -11 -9 1729.87 159.137 3
 -6 12 7 2020.3 189.545 5
 -6 -12 -7 1732.12 185.852 2
 6 12 -7 1988.99 218.886 7
 6 -12 6 1121.03 138.228 4
 -6 12 6 1732.78 178.431 5
 6 12 -6 1638.72 185.302 7
 -6 -12 -6 1406.57 170.865 2
 6 12 -5 4253.55 289.804 7
 -6 -12 -5 3773.91 264.764 2
 6 12 -4 3746.79 270.552 7
 -6 12 4 3355.03 249.624 5
 -6 -12 -4 3580.67 264.141 2
 -6 12 3 6543.08 330.451 5
 6 12 -3 6899.77 361.736 7
 6 -12 3 6410.55 331.63 4
 -6 -12 -2 4966.54 321.718 2
 6 12 -2 6129.31 346.142 7
 -6 -12 -1 7752.11 405.628 2
 6 12 -1 8601.01 405.179 7
 -6 -12 0 5029.26 345.748 2
 6 12 0 5613.63 332.555 7
 -6 -12 1 6448.71 391.155 2
 6 12 1 7273.3 352.271 7
 6 12 2 4810.12 287.36 7
 6 -12 -4 2669.39 202.923 3
 -6 -12 6 1853.14 229.163 1
 6 -12 -6 1452.54 149.075 3
 6 12 7 1803.63 176.939 8
 -6 12 -7 1532.35 168.206 6
 -6 -12 7 1903.96 234.388 1
 6 -12 -7 2291.78 186.205 3
 -6 -13 -5 277.393 89.3771 2
 -6 -13 -4 601.135 117.877 2
 -6 -13 -3 186.112 74.641 2
 -6 -13 -2 1299.14 186.63 2
 -7 0 0 182.853 78.092 8
 -7 0 0 2.10441 33.6584 5
 7 0 0 -2.28451 33.724 7
 7 0 0 73.3203 56.1879 6
 -7 0 0 14.3423 58.9198 2
 7 0 0 101.138 46.593 4
 7 0 1 22099.9 486.969 7
 7 0 1 23196.1 500.961 4
 7 0 -1 19870.1 467.646 4
 7 0 -1 20113.6 486.403 6
 -7 0 1 24392.4 624.85 8
 -7 0 -1 22009.6 611.029 2
 -7 0 1 22520.4 680.012 2
 7 0 -1 19674 484.335 7
 -7 0 1 17172.7 530.302 5
 -7 0 -1 20331.8 470.888 5
 -7 0 2 167.61 68.9423 8
 -7 0 -2 3.09162 51.2468 2
 -7 0 2 61.9521 69.0488 2
 -7 0 -2 93.1438 50.9084 5
 -7 0 2 79.0387 42.4734 5
 7 0 2 2.28136 42.7145 4
 7 0 -2 73.0321 47.678 4
 7 0 2 4.39697 33.4957 7
 7 0 -2 65.8107 40.1271 7
 -7 0 -3 24096.1 536.485 5
 -7 0 3 24339.6 518.22 5
 7 0 -3 22647.9 578.172 6
 7 0 -3 24663 546.275 7
 -7 0 3 25753.1 769.595 2
 -7 0 -3 25406.8 636.226 2
 7 0 3 27988 541.913 4
 7 0 -3 25485.8 542.227 4
 7 0 -4 733.529 105.788 6
 7 0 -4 647.596 91.5513 7
 -7 0 4 622.836 146.362 2
 -7 0 4 644.954 92.2737 5
 -7 0 4 773.493 120.444 8
 -7 0 -4 666.903 106.459 2
 7 0 4 675.284 97.1765 4
 7 0 4 533.993 84.3794 7
 -7 0 5 19100.2 535.101 8
 7 0 5 17893.1 448.324 4
 7 0 -5 17338.6 461.8 6
 -7 0 -5 21262.8 576.058 2
 7 0 5 15448.6 417.003 7
 7 0 -5 19062 461.648 4
 7 0 -5 18197.4 483.833 7
 -7 0 -6 2154.42 185.107 2
 7 0 -6 2442.08 175.262 6
 7 0 6 2233.55 173.685 4
 7 0 6 2227.95 163.091 7
 -7 0 6 2494.45 202.151 8
 7 0 -6 2483.47 172.858 4
 -7 0 6 2222.99 262.807 2
 -7 0 -6 2491.49 256.858 3
 -7 0 -6 2317 179.062 5
 7 0 -6 2162.62 161.283 3
 -7 0 -7 11537.3 404.143 5
 7 0 -7 11481.5 375.14 6
 -7 0 -7 10079.5 393.186 2
 -7 0 -7 13438.1 557.232 3
 7 0 7 12101.6 393.169 4
 -7 0 7 13365.9 454.095 8
 7 0 7 11822.5 379.717 7
 7 0 -7 12685.8 392.318 3
 -7 0 7 12079.7 513.692 1
 -7 0 7 12126.3 607.121 2
 7 0 -7 11688.2 377.051 4
 7 0 8 4423.09 246.464 4
 7 0 -8 4362.6 234.346 6
 -7 0 -8 3569.41 248.99 2
 -7 0 8 5024.27 282.144 8
 7 0 -8 4453.85 240.202 4
 -7 0 -8 4121.69 310.588 3
 -7 0 8 3932.66 300.822 1
 -7 0 8 4404.16 376.724 2
 7 0 -8 4744.91 249.449 3
 7 0 8 4364.94 172.98 1
 -7 0 9 6205.09 318.286 8
 7 0 -9 5189.21 259.462 6
 7 0 9 5409.99 271.797 4
 -7 0 -9 6002.51 283.887 5
 7 0 -9 5307.1 275.296 3
 -7 0 -9 5690.46 349.069 3
 -7 0 9 5334.56 425.212 2
 7 0 9 5887.16 204.405 1
 7 0 -9 4776.93 244.35 4
 7 0 10 7241.27 296.781 7
 7 0 10 6389.41 281.627 1
 -7 0 -10 6324.16 282.721 5
 7 0 -10 6517.71 286.686 4
 -7 0 -10 6576.48 356.502 3
 -7 0 10 6636.02 463.594 2
 -7 0 10 6799.85 334.492 8
 7 0 10 6517.8 303.444 4
 7 0 11 3165.42 204.147 7
 -7 0 11 2995.85 224.881 8
 -7 0 11 3078.91 322.693 2
 7 0 11 3119.3 225.066 1
 7 0 -11 3083.09 199.54 4
 -7 0 -11 3064.25 213.178 5
 7 0 -11 2966.14 200.654 6
 -7 0 -11 3642.16 266.05 3
 7 0 12 9049.97 334.269 7
 -7 0 12 11327.6 424.909 8
 7 0 12 9552.14 381.61 1
 7 0 -12 10034.8 354.741 4
 -7 0 -12 10033.9 438.607 3
 -7 0 -12 9912.41 387.498 5
 7 0 -12 7901.84 324.458 6
 -7 0 12 9962.84 568.745 2
 -7 0 13 1266.27 213.867 2
 -7 0 13 980.788 140.052 8
 7 0 -13 1271.81 130.565 4
 -7 0 -13 1385.82 153.04 5
 -7 0 -13 1489.82 173.202 3
 7 0 13 1090.37 122.775 7
 7 0 -13 1101.91 125.146 6
 7 0 -14 4651.62 248.165 6
 -7 0 14 4786.34 383.217 2
 7 0 14 5335.23 289.361 1
 7 0 14 4920.7 253.631 7
 -7 0 -14 5462.56 303.363 3
 -7 0 -14 4584.53 264.106 5
 -7 0 14 5162.96 289.805 8
 7 0 -14 3918.43 219.189 4
 -7 1 14 1676.61 163.48 8
 7 -1 14 1625.9 160.686 1
 7 -1 14 1626.82 159.398 7
 7 1 -14 2000.9 165.657 6
 -7 -1 -14 1811.25 177.587 3
 -7 -1 -14 2343.27 196.588 5
 -7 1 14 1740.53 249.177 2
 7 -1 13 2268.28 175.448 7
 -7 1 13 2143.45 186.229 8
 7 -1 13 2361.21 191.289 1
 -7 1 13 2633.54 291.913 2
 -7 -1 -13 2993 239.123 3
 -7 -1 -13 2519.99 200.647 5
 7 1 -13 2498.6 178.527 4
 7 -1 12 7024.8 325.654 1
 7 1 -12 7188.08 298.986 4
 -7 1 12 7322.39 336.496 8
 -7 1 12 7782.71 493.541 2
 -7 -1 -12 8008.77 389.101 3
 7 -1 12 8860.08 338.143 7
 -7 -1 -12 8500.9 367.874 5
 7 -1 11 4519.56 277.207 1
 -7 -1 -11 4927.39 306.62 3
 7 1 -11 4615.54 241.178 4
 -7 1 11 4805.84 271.633 8
 7 -1 11 3924.89 228.553 7
 -7 1 11 5177.44 408.098 2
 -7 -1 -11 5233.17 281.309 5
 7 -1 11 4694.9 261.858 4
 7 -1 10 19582.8 500.643 4
 -7 1 10 20310.7 795.799 2
 7 -1 10 18124 529.833 1
 7 -1 10 18302.3 483.63 7
 -7 1 10 20305.1 550.575 8
 7 1 -10 15562.1 470.547 6
 -7 -1 -10 18444.7 503.569 5
 7 1 -10 16528.7 455.008 4
 -7 -1 -10 18120.6 586.462 3
 7 -1 9 4364.3 247.195 4
 7 1 -9 5276.7 267.152 6
 7 -1 9 5696.79 219.026 1
 -7 1 9 4600.04 268.25 8
 7 -1 9 4952.78 247.38 7
 7 1 -9 4866.08 245.456 4
 -7 1 9 4743.96 397.305 2
 -7 -1 -9 4994.65 310.296 2
 -7 -1 -9 5112.63 316.969 3
 7 -1 8 27495 617.03 4
 7 1 -8 29467.4 625.947 6
 -7 1 8 30578.3 978.746 2
 7 -1 8 29784.6 444.128 1
 7 1 -8 27909.7 584.069 4
 -7 -1 -8 33058.2 858.356 3
 -7 1 8 27535.3 649.116 8
 7 -1 8 29047.7 584.775 7
 -7 -1 -8 25060.6 624.925 2
 7 -1 7 1672.86 154.72 4
 7 1 -7 1487.16 140.389 6
 -7 -1 -7 1448.15 157.577 2
 -7 -1 -7 1509.65 199.611 3
 -7 -1 -7 1424.49 145.955 5
 7 -1 7 2161.18 123.881 1
 -7 1 7 1703.41 167.125 8
 7 -1 7 1481.04 133.312 7
 -7 1 7 1570.56 238.423 2
 7 1 -7 1571.39 144.219 3
 -7 -1 -6 31049.1 846.61 3
 7 1 -6 27094.3 561.667 6
 -7 -1 -6 29916.8 644.26 5
 -7 1 6 29645.1 659.192 8
 7 -1 6 27089.4 578.85 4
 -7 -1 -6 26777.3 646.89 2
 7 -1 6 26870.7 570.08 7
 -7 1 6 26993.1 877.253 2
 7 1 -6 29121.3 589.894 4
 7 1 -5 4576.27 231.796 4
 7 -1 5 4821.54 234.837 4
 7 1 -5 5376.85 250.718 6
 -7 -1 -5 4994.91 248.456 5
 -7 1 5 5275.02 386.922 2
 -7 1 5 5055.8 299.114 8
 -7 -1 -5 5012.3 358.344 3
 7 1 -4 12891.4 419.438 7
 7 -1 4 17256.6 450.813 4
 -7 -1 -4 16449.1 500.089 2
 -7 1 4 17589.1 499.031 8
 -7 -1 -4 15136.7 423.48 5
 -7 1 4 15250.4 426.592 5
 7 1 -4 18946.5 473.699 6
 7 -1 4 18628 453.461 7
 -7 -1 -3 3496.22 243.145 2
 7 1 -3 3730.3 214.018 4
 7 1 -3 3541.66 227.611 7
 -7 -1 -3 3626.43 212.682 5
 -7 1 3 3645.9 296.741 2
 7 1 -3 4359.95 226.811 6
 7 -1 3 3770.86 203.382 7
 7 -1 3 4170.07 213.647 4
 -7 1 3 3467.33 200.264 5
 7 -1 2 5965.62 307.035 4
 7 1 -2 5499.71 248.222 4
 7 -1 2 4214.03 215.654 7
 7 1 -2 7121.02 299.325 6
 -7 1 2 5609.8 347.918 2
 -7 -1 -2 6357.82 324.931 2
 7 1 -2 5545.97 263.023 7
 -7 1 2 6497.76 274.997 5
 -7 1 2 5964.41 297.976 8
 -7 -1 -2 5442.69 254.973 5
 7 1 -1 7628.66 305.987 6
 -7 -1 -1 6717.16 344.499 2
 -7 1 1 7282.37 378.87 2
 7 1 -1 6964.51 278.23 4
 -7 1 1 7486.57 342.693 8
 -7 -1 -1 6919.68 345.758 8
 7 1 -1 6253.99 274.724 7
 7 -1 1 6706.45 284.197 6
 -7 -1 -1 6154.12 264.681 5
 -7 1 1 6440.67 270.759 5
 7 -1 0 1279.93 121.877 7
 7 1 0 1384.78 129.854 6
 -7 -1 0 1320.13 165.03 2
 -7 1 0 1187.37 152.104 2
 7 -1 0 1345 124.92 4
 7 1 0 1733.19 143.712 4
 -7 -1 0 1529.48 166.393 8
 -7 1 0 1575.21 168.498 8
 7 -1 0 962.539 112.542 6
 7 1 0 1485.12 134.887 7
 -7 1 0 1147.86 120.222 5
 -7 -1 0 1256.01 117.506 5
 7 1 1 5832.37 260.428 7
 7 -1 -1 6731.19 273.72 7
 7 -1 -1 6255.33 268.962 6
 -7 1 -1 5240.4 289.836 2
 -7 -1 1 6829.21 380.915 2
 7 1 1 5532.75 245.578 6
 7 1 1 5922.03 260.241 4
 -7 1 -1 6065.13 319.438 8
 -7 -1 1 6322.56 324.562 8
 -7 -1 1 6335.15 257.674 5
 -7 1 -2 6940.07 339.46 8
 7 -1 -2 6301.54 269.977 7
 -7 -1 2 6798.17 276.44 5
 -7 1 -2 6906.29 288.452 5
 7 1 2 7387.16 303.783 4
 7 1 2 6118.77 270.507 7
 -7 1 -2 6632.26 321.902 2
 -7 -1 2 6919.23 394.422 2
 7 -1 -3 3542.51 203.548 7
 7 1 3 3808.33 203.37 4
 -7 1 -3 3872.71 238.519 2
 -7 -1 3 4261.75 261.496 8
 7 -1 -3 3929.59 239.331 6
 7 1 3 3450.85 208.006 7
 -7 -1 3 4238.64 222.333 5
 -7 -1 4 18144 535.913 8
 7 1 4 17868.2 448.582 4
 -7 1 -4 17970.2 500.812 2
 7 -1 -4 18727.4 473.476 7
 -7 -1 4 16238.2 429.376 5
 -7 1 -4 21247.2 508.592 5
 7 -1 -4 21378 546.946 6
 -7 -1 4 16242.9 644.856 2
 7 -1 -4 15578.7 446.649 4
 -7 1 -5 5716.88 271.322 5
 -7 -1 5 5354.93 339.517 1
 -7 -1 5 5685.71 257.449 5
 7 1 5 6198.61 265.127 4
 7 -1 -5 5969.99 266.392 4
 7 -1 -5 5144.27 255.191 6
 -7 -1 5 5883.87 398.877 2
 7 -1 -5 5938.82 257.433 3
 7 -1 -5 5915.03 272.145 7
 7 1 5 6342.16 272.839 7
 -7 1 -5 4925.49 268.69 2
 -7 -1 5 5468.51 303.922 8
 7 1 6 27257.1 556.1 7
 7 1 6 27208.9 571.173 4
 7 -1 -6 27748.1 567.756 3
 -7 1 -6 29311.3 608.352 5
 -7 -1 6 29533.5 677.293 8
 -7 -1 6 29375.8 921.803 2
 -7 -1 6 28640.6 762.271 1
 7 -1 -6 29106.2 599.399 6
 7 1 7 947.907 117.121 7
 7 1 7 823.94 112.336 4
 7 -1 -7 887.398 112.007 4
 -7 1 -7 964.506 175.718 3
 -7 -1 7 1070.66 163.984 1
 -7 1 -7 1096.85 129.86 5
 7 -1 -7 1016.26 119.333 3
 -7 -1 7 975.457 186.663 2
 7 -1 -7 930.541 120.646 6
 -7 -1 7 1039.47 137.675 8
 7 1 8 29179.9 589.944 7
 7 1 8 29173.7 442.46 1
 -7 1 -8 29776.7 874.056 3
 -7 -1 8 29310.1 794.403 1
 7 -1 -8 28739.9 613.635 3
 -7 -1 8 30708.2 959.837 2
 -7 -1 8 35655.2 764.398 8
 7 -1 -8 28158.8 586.67 4
 -7 1 -8 36990.1 704.689 5
 7 1 9 5163.03 245.67 7
 7 1 9 4937.9 184.749 1
 -7 1 -9 5380.48 346.958 3
 -7 1 -9 5050.14 256.209 5
 7 -1 -9 5553.59 265.3 4
 -7 -1 9 4989.97 402.592 2
 7 -1 -9 5193.74 259.874 6
 -7 -1 9 4346.29 310.212 8
 7 -1 -10 18441.7 490.611 6
 7 1 10 19617.1 477.496 7
 -7 1 -10 18701.7 600.352 3
 -7 -1 10 18614.2 638.975 1
 -7 -1 10 18188.9 756.729 2
 7 -1 -10 18603.8 497.848 4
 7 -1 -10 19044.7 512.758 3
 -7 -1 10 19710.7 572.639 8
 -7 1 -10 20357.3 523.172 5
 7 1 11 5009.08 244.784 7
 7 -1 -11 5034.2 264.881 6
 7 1 11 5024.3 269.922 1
 -7 -1 11 4726.28 395.857 2
 -7 1 -11 5271.71 265.687 5
 7 -1 -11 4968.83 257.69 4
 -7 1 -11 5541.88 325.551 3
 -7 -1 11 4963.67 289.722 8
 7 1 12 6447.34 283.762 7
 7 -1 -12 6734.15 302.893 6
 7 1 12 7599.81 351.621 1
 -7 1 -12 6828.84 315.151 6
 -7 -1 12 7711 368.616 8
 7 -1 -12 8562.21 336.872 4
 -7 1 -12 7008.99 313.777 5
 -7 -1 12 6638.52 467.326 2
 -7 1 -12 7594.43 378.933 3
 -7 1 -13 2864.32 240.395 3
 -7 -1 13 2875.46 226.393 8
 7 -1 -13 2368.42 178.229 4
 7 1 13 2175.81 165.305 7
 7 -1 -13 2516.09 188.787 6
 -7 1 -13 2663.83 209.545 5
 -7 -1 13 2369.58 278.563 2
 7 1 13 2124.83 183.536 1
 -7 -1 14 1610.83 230.907 2
 -7 -1 14 1997.06 199.62 8
 7 -1 -14 1625.56 154.98 6
 7 1 14 2322.36 173.007 7
 -7 1 -14 1670.79 173.841 3
 7 1 14 1492.89 159.646 1
 7 -1 -14 1803.19 155.536 4
 -7 1 -14 1821.41 174.404 5
 7 -2 13 3230.16 211.236 7
 -7 2 13 3605.28 346.409 2
 -7 -2 -13 3435.05 246.344 5
 7 2 -13 3696.82 212.297 4
 -7 -2 -13 4157.82 266.451 3
 7 -2 13 4404.14 265.653 1
 7 -2 12 2717.9 207.98 1
 7 -2 12 3057.84 209.303 7
 -7 -2 -12 3032.65 227.285 5
 -7 2 12 2939.49 209.052 8
 -7 -2 -12 3788.64 264.102 3
 7 2 -12 3423.87 207.286 4
 -7 2 12 3273.93 330.672 2
 -7 -2 -11 4833.47 286.233 2
 7 2 -11 6190.93 280.952 4
 7 -2 11 5423.51 289.822 1
 -7 -2 -11 5687.97 304.055 5
 -7 -2 -11 6634.79 362.934 3
 7 2 -11 5556.75 274.336 6
 -7 2 11 5911.62 294.355 8
 -7 2 11 5894.33 441.099 2
 7 -2 10 4876.64 261.611 7
 7 2 -10 4818.74 256.108 6
 -7 -2 -10 4058.7 285.261 3
 -7 -2 -10 4253.98 278.963 2
 -7 -2 -10 4858.27 264.646 5
 7 -2 10 5162.46 260.864 4
 -7 2 10 4734.96 393.342 2
 -7 2 10 4778.13 266.829 8
 7 -2 9 16663.4 469.344 4
 -7 -2 -9 12733.7 424.509 5
 7 2 -9 16463.9 498.042 6
 -7 -2 -9 15474.9 540.117 3
 7 -2 9 14007.2 452.272 1
 7 2 -9 15971.3 442.138 4
 -7 -2 -9 14928.1 507.311 2
 -7 2 9 14940.6 468.664 8
 -7 2 9 14290.7 678.857 2
 7 -2 9 13463.4 414.358 7
 7 2 -8 3806.28 229.271 6
 7 2 -8 3664.73 212.738 4
 -7 2 8 3494.31 230.516 8
 7 -2 8 3466.53 207.087 7
 -7 -2 -8 3333.42 233.567 2
 -7 -2 -8 3481.93 278.245 3
 -7 2 8 3675.04 351.494 2
 7 -2 8 4337.47 194.019 1
 7 -2 7 12278.1 397.135 4
 -7 -2 -7 10799.9 373.599 5
 7 2 -7 11366.8 381.686 6
 7 2 -7 10947.4 361.328 4
 -7 2 7 11101.4 584.225 2
 7 -2 7 11071.6 273.172 1
 -7 -2 -7 10394.1 425.583 2
 -7 -2 -7 11864.5 506.785 3
 7 -2 7 11043.6 361.107 7
 -7 2 7 12513.3 425.133 8
 -7 -2 -6 10372.6 408.938 2
 -7 -2 -6 7180.36 437.576 3
 7 2 -6 9680.55 344.449 6
 7 -2 6 9205.5 247.827 1
 -7 2 6 8847.48 527.005 2
 7 -2 6 9387.47 325.082 7
 7 2 -6 9809.8 346.342 4
 -7 2 6 11345.4 405.137 8
 7 -2 6 10317.3 353.236 4
 -7 -2 -6 9671.85 353.49 5
 7 -2 5 13358.6 389.978 4
 -7 -2 -5 14780 502.338 2
 -7 -2 -5 14748.9 453.021 5
 7 2 -5 13135.1 388.959 6
 7 2 -5 15083.3 413.962 4
 -7 2 5 13141.9 441.753 8
 -7 -2 -5 14775.3 586.336 3
 -7 2 5 11891.6 579.134 2
 -7 2 4 23959.3 527.147 5
 7 -2 4 23853.8 536.477 4
 7 -2 4 21827.2 481.564 7
 7 2 -4 21481.6 502.051 6
 -7 2 4 19922.4 601.355 8
 -7 2 4 21609 764.496 2
 -7 -2 -4 24158.4 761.272 3
 -7 -2 -3 13820.9 481.258 2
 -7 2 3 11828.3 534.986 2
 7 -2 3 10474.8 328.564 7
 -7 2 3 13886.3 442.128 8
 7 2 -3 15794.1 444.023 4
 7 2 -3 13357.9 418.367 7
 7 2 -3 14023.3 399.694 6
 -7 -2 -3 12039.9 371.801 5
 7 2 -2 16710.8 473.175 7
 -7 -2 -2 17356.2 453.435 5
 7 2 -2 15885.9 432.908 4
 -7 2 2 19217.7 468.823 5
 7 -2 2 18474.5 433.725 7
 -7 2 2 19252.2 532.436 8
 -7 -2 -2 18377 556.378 2
 -7 2 2 16509.4 596.44 2
 -7 -2 -1 5932.77 330.086 2
 -7 2 1 5560.35 330 2
 7 -2 1 5090.06 227.155 7
 -7 2 1 5942.81 293.864 8
 7 -2 1 5839.25 253.949 4
 7 2 -1 5347.62 253.713 7
 7 2 -1 6600.28 289.475 6
 -7 2 1 6995.99 289.708 5
 -7 -2 -1 5771.28 253.139 5
 7 2 -1 6242.03 267.215 4
 7 -2 0 14497.1 406.447 4
 7 2 0 16474.8 404.388 4
 -7 -2 0 15606.8 414.377 5
 -7 2 0 14467.4 414.105 5
 -7 2 0 16011.9 499.181 8
 -7 2 0 14447.6 503.44 2
 -7 2 -1 6852.64 277.81 5
 -7 -2 1 6045.59 248.307 5
 7 2 1 6100.61 254.685 4
 7 -2 -1 6390.34 269.781 4
 7 2 1 6090.92 258.22 6
 -7 2 -1 6986.63 326.845 8
 -7 -2 1 6200.06 361.582 2
 7 -2 -1 6436.97 259.952 7
 7 2 1 6012.97 277.069 7
 -7 2 -2 16050.8 517.983 8
 7 2 2 17531.3 473.651 4
 7 2 2 15917.6 427.707 6
 7 -2 -2 16458 419.044 7
 -7 -2 2 15268.5 398.707 5
 7 2 2 18560.1 470.001 7
 7 2 3 11987.9 349.778 4
 -7 2 -3 11357.1 379.93 5
 -7 -2 3 11333.2 345.56 5
 7 -2 -3 13466.8 399.713 4
 -7 -2 3 12973.1 477.039 8
 -7 -2 3 12225 533.971 2
 7 -2 -3 13873.6 425.494 6
 7 2 4 20129.5 457.04 4
 -7 2 -4 22225.4 524.326 5
 -7 -2 4 18707.4 453.367 5
 -7 -2 4 19816.2 695.246 2
 7 -2 -4 20928.8 489.299 7
 -7 -2 4 21114.5 594.813 8
 7 2 4 20141.1 514.845 7
 7 -2 -4 19292.6 456.041 3
 7 -2 -4 20057.9 528.969 6
 -7 -2 5 11993 568.622 2
 7 2 5 13581.1 384.797 4
 -7 2 -5 14099.2 431.393 5
 7 2 5 13602.6 402.97 7
 7 -2 -5 13053.3 386.763 3
 -7 -2 5 13259.5 390.622 5
 -7 -2 5 14064.2 484.167 8
 -7 -2 5 11955 496.884 1
 -7 -2 6 6865.9 381.525 1
 -7 -2 6 7382.56 358.18 8
 7 -2 -6 8281.87 334.842 6
 -7 -2 6 6441.57 436.914 2
 7 2 6 7585.57 300.703 7
 -7 2 -6 7396.24 305.463 5
 7 -2 -6 7380.33 297.597 3
 7 -2 -6 7374.6 303.371 4
 7 -2 -7 10309.3 357.63 4
 7 2 7 11571 367.663 7
 7 -2 -7 11860.2 398.818 6
 -7 2 -7 11345.1 387.247 5
 -7 -2 7 10649.7 470.982 1
 -7 -2 7 11338.2 588.584 2
 7 -2 -7 11671.3 380.441 3
 -7 -2 7 11053.3 434.049 8
 -7 2 -7 11094.8 527.303 3
 -7 -2 8 2870.44 251.396 1
 -7 -2 8 3512.52 250.458 8
 -7 2 -8 3908.41 235.582 5
 -7 -2 8 3232.27 327.253 2
 7 2 8 3689.8 219.767 7
 7 -2 -8 3560.84 213.322 4
 7 -2 -9 15437.8 440.65 4
 7 -2 -9 15120.1 464.621 6
 -7 -2 9 15528.7 687.33 2
 -7 -2 9 15579.1 513.948 8
 -7 2 -9 13223 545.596 3
 -7 -2 9 15318.1 575.844 1
 7 -2 -9 14270.2 426.1 3
 7 2 9 13742 399.805 7
 7 2 9 14253.5 311.798 1
 7 -2 -10 4522 243.083 4
 7 -2 -10 5316.94 276.924 6
 -7 -2 10 4945.46 397 2
 -7 -2 10 6412.15 337.646 8
 -7 2 -10 4676.02 321.839 3
 -7 -2 10 5601.7 357.216 1
 -7 2 -10 5842.67 276.366 5
 7 -2 -10 4738.76 249.577 3
 7 2 10 5084.28 244.579 7
 7 2 10 4901.86 186.138 1
 -7 2 -11 6140.37 275.02 5
 -7 -2 11 5524.96 360.767 1
 7 2 11 5910.79 264.465 7
 7 2 11 4672.38 277.448 1
 -7 -2 11 5592.95 429.472 2
 -7 -2 11 5290.75 309.051 8
 7 -2 -11 5081.56 255.152 4
 -7 2 -11 5489.66 326.546 3
 7 2 12 2951.37 213.32 8
 -7 2 -12 3274.12 253.502 3
 7 2 12 2944.73 223.394 1
 7 -2 -12 3138.93 218.909 6
 -7 2 -12 3027.09 206.969 6
 -7 -2 12 2874.49 311.639 2
 7 -2 -12 3240.67 205.06 4
 -7 2 -12 3341.2 218.301 5
 7 2 12 2940.15 193.94 7
 -7 2 -13 3480.13 265.862 3
 -7 -2 13 3666.18 262.536 8
 7 2 13 3307.42 224.687 1
 7 -2 -13 3934.16 228.45 4
 -7 -2 13 3489.57 326.99 2
 -7 2 -13 3368.04 227.79 5
 -7 2 -13 3466 225.054 6
 7 -2 -13 3004.84 221.045 6
 7 2 13 3122.42 203.205 7
 -7 2 -14 2456.17 208.543 3
 7 3 -13 1688.42 149.055 4
 -7 -3 -13 1837.69 178.581 3
 7 3 -13 1790.61 157.897 6
 -7 3 13 1591.75 233.52 2
 7 -3 13 1564.07 157.102 7
 7 -3 13 1932.06 179.47 1
 -7 -3 -13 1636.15 173.244 5
 -7 3 13 1870.53 165.595 8
 7 3 -12 2177.03 170.124 4
 7 -3 12 2354.23 193.623 1
 7 -3 12 2636.79 198.782 7
 7 3 -12 2486.52 187.441 6
 -7 3 12 2458.36 185.917 8
 -7 -3 -12 2080.05 191.839 5
 -7 -3 -12 2440.23 206.293 3
 7 -3 12 2260.94 179.409 4
 -7 3 12 1745.42 251.889 2
 7 -3 11 4333.09 256.981 1
 7 -3 11 3769.42 230.006 7
 7 3 -11 5618.03 272.574 6
 -7 -3 -11 4351.52 272.034 5
 7 3 -11 3531.66 215.723 4
 -7 -3 -11 4916.1 309.834 3
 7 -3 11 4834.22 253.976 4
 -7 3 11 4252.4 245.608 8
 -7 3 11 3985.48 368.453 2
 -7 -3 -11 3417.74 241.118 2
 7 -3 10 6142.13 293.218 7
 -7 -3 -10 5321.37 300.449 2
 -7 -3 -10 6026.58 321.229 5
 7 -3 10 6204.83 279.901 4
 7 3 -10 6630.13 291.929 4
 -7 3 10 5759.71 437.015 2
 -7 -3 -9 13248.2 507.391 3
 7 -3 9 12486.8 469.765 1
 7 3 -9 14808.1 444.601 6
 7 3 -9 12496.4 396.573 4
 -7 3 9 13012.2 667.79 2
 -7 3 9 14627.9 450.301 8
 -7 -3 -9 13819.2 465.58 5
 7 -3 9 11492.9 404.574 7
 -7 -3 -9 13305.9 476.984 2
 -7 -3 -8 12858 456.6 2
 -7 -3 -8 11885.9 478.508 3
 7 -3 8 15621.4 447.638 7
 7 -3 8 11768.1 400.162 4
 7 -3 8 10655.3 401.423 1
 7 3 -8 14423 441.945 6
 -7 3 8 13343.6 659.527 2
 7 3 -8 13272.4 398.042 4
 -7 3 8 13046.1 430.154 8
 7 3 -7 25494.7 562.512 4
 -7 -3 -7 25765.2 667.195 2
 7 -3 7 24247.4 542.65 7
 7 -3 7 24741.2 570.391 4
 -7 3 7 27664.8 929.609 2
 -7 -3 -7 22271.5 551.151 5
 -7 -3 -6 8774.06 376.783 2
 -7 3 6 9166.61 361.06 8
 -7 3 6 8921.5 533.339 2
 7 -3 6 9170.33 247.542 1
 -7 -3 -6 10355.6 470.39 3
 7 3 -6 10048 355.437 6
 7 -3 6 8756.02 328.087 4
 7 -3 6 9045.42 318.694 7
 -7 -3 -6 9262.48 346.075 5
 -7 3 5 32870.8 684.533 8
 -7 -3 -5 31635.3 750.385 2
 -7 3 5 28032.6 904.148 2
 7 3 -5 27840.1 571.891 4
 7 -3 5 26114 535.341 7
 7 3 -5 29588.8 589.107 6
 -7 -3 -5 27913 907.938 3
 -7 3 4 1687.89 147.175 5
 -7 -3 -4 1461.05 162.128 2
 -7 3 4 1792.52 165.431 8
 7 -3 4 1645.15 147.612 4
 -7 -3 -4 1839.28 219.372 3
 7 3 -4 1669.75 155.847 7
 7 3 -4 1577.54 139.534 6
 7 -3 4 1768.05 138.46 7
 -7 -3 -4 1572.02 148.25 5
 -7 3 4 1490.63 211.548 2
 -7 3 3 17893.3 674.318 2
 -7 3 3 18471.8 475.616 5
 -7 -3 -3 16518.1 538.536 2
 7 -3 3 16979.8 445.432 4
 7 3 -3 16714.9 442.783 6
 7 3 -3 17532.3 489.679 7
 7 3 -3 17190.9 440.856 4
 -7 -3 -3 16409 443.448 5
 -7 -3 -2 1274.28 155.167 2
 -7 3 2 1437.8 183.646 2
 7 3 -2 1390.39 137.751 7
 -7 3 2 1505.71 137.685 5
 7 3 -2 1650.45 143.861 4
 -7 3 2 1471.55 150.293 8
 -7 -3 -2 1310.82 123.229 5
 7 -3 2 1173.44 108.379 7
 7 -3 2 1278.5 131.757 4
 7 -3 1 32004.8 611.003 4
 -7 3 1 35957.9 825.692 2
 -7 -3 -1 32238.6 598.824 5
 7 3 -1 38339.5 650.107 4
 -7 3 1 37573 692.988 5
 7 3 -1 36836 668.542 6
 -7 3 1 32107.3 679.129 8
 -7 3 0 1421.03 167.29 8
 -7 -3 0 1787.66 188.188 8
 7 3 0 1732.17 150.271 6
 7 -3 0 1135.78 141.933 4
 7 3 0 1494.66 126.66 4
 7 3 1 34454.5 621.144 6
 -7 -3 1 34099.5 805.177 8
 -7 3 -1 33665.5 709.049 8
 7 3 1 35777.5 631.245 4
 7 -3 -1 40620.7 713.656 4
 -7 -3 1 34566.5 846.934 2
 7 -3 -1 34012.3 680.566 6
 -7 -3 1 41914.4 695.633 5
 -7 3 -1 33444.4 621.926 5
 -7 -3 2 2247.74 206.913 8
 -7 3 -2 1693.31 176.247 8
 7 -3 -2 1671.75 151.337 4
 7 3 2 1672.43 146.877 7
 -7 -3 2 1974.4 223.165 2
 7 -3 -2 1734.14 154.366 6
 7 3 2 1925.34 163.075 6
 -7 3 -2 2009.59 155.772 5
 -7 -3 2 1567.43 126.829 5
 7 3 3 20812.3 510.541 7
 7 -3 -3 18486.3 495.991 4
 -7 -3 3 18811.8 586.276 8
 -7 3 -3 21753 522.827 5
 -7 -3 3 21804.8 709.231 2
 -7 -3 4 1824.47 221.333 2
 -7 -3 4 1611.79 208.143 1
 7 3 4 1608 161.929 7
 7 -3 -4 1857.12 151.788 3
 7 -3 -4 1731.66 154.11 4
 -7 -3 4 2154.56 206.465 8
 -7 3 -4 1948.47 160.496 5
 7 -3 -4 1909.53 165.888 6
 -7 -3 5 33716.2 932.626 2
 7 -3 -5 26219.7 635.07 4
 -7 -3 5 32225.7 816.892 1
 -7 3 -5 34966.5 686.412 5
 -7 -3 5 39629.4 842.503 8
 7 -3 -5 36047.7 731.622 6
 7 -3 -5 33782.6 632.213 3
 7 3 5 31977.1 621.194 7
 -7 -3 6 7097.66 387.29 1
 7 -3 -6 7918.98 318.305 3
 7 -3 -6 8363.15 343.004 4
 7 3 6 8528.28 323.256 7
 7 -3 -6 9980.64 385.102 6
 -7 -3 6 7822.21 376.751 8
 -7 -3 6 7894.52 474.742 2
 -7 3 -6 10523.2 366.523 5
 -7 -3 7 29534.5 779.938 1
 -7 3 -7 28199.3 847.623 3
 7 -3 -7 28345.6 597.524 3
 7 -3 -7 27649.6 670.162 6
 -7 -3 7 29452.1 734.816 8
 7 -3 -8 14621.5 496.171 6
 -7 -3 8 12523.6 480.792 8
 -7 3 -8 13828.9 441.235 5
 -7 -3 8 10991.6 476.382 1
 -7 3 -8 11769.2 538.596 3
 -7 -3 8 14975.1 675.752 2
 7 3 8 14071.7 422.121 7
 7 -3 -8 13898.6 424.001 4
 7 -3 -8 12113.7 387.068 3
 -7 -3 9 14661 529.464 8
 7 3 9 13965.1 308.72 1
 -7 3 -9 12716.6 539.138 3
 -7 -3 9 20214.2 662.465 1
 -7 -3 9 11825.8 643.956 2
 -7 3 -9 18476.7 497.864 5
 7 -3 -9 17752.5 511.59 6
 7 3 9 13588.7 403.12 7
 7 -3 -9 13455.4 415.096 4
 7 -3 -9 13219.4 406.062 3
 7 -3 -10 5381.6 265.146 3
 7 3 10 5609.01 196.703 1
 -7 3 -10 5618.97 353.953 3
 -7 -3 10 5132.21 345.812 1
 7 -3 -10 6071.42 305.905 6
 7 -3 -11 4559.82 243.407 4
 7 -3 -11 4484.51 261.449 6
 7 -3 -11 3938.96 225.867 3
 -7 -3 11 4533.62 298.106 8
 -7 3 -11 4479.49 297.997 3
 -7 -3 11 3875.77 300.333 1
 -7 3 -11 4009.88 235.686 5
 -7 -3 11 4282.56 377.094 2
 7 3 11 4812.31 235.888 7
 -7 3 -12 1744.99 203.344 3
 7 3 12 2354.06 200.104 1
 7 3 12 2361.31 186.346 8
 -7 3 -12 1927.65 163.11 5
 -7 -3 12 2128.54 272.761 2
 -7 -3 12 2400.17 223.262 8
 7 -3 -12 1959.17 162.369 3
 7 -3 -12 2332.64 175.333 4
 7 3 12 2225.76 163.793 7
 -7 -3 12 1755.76 209.159 1
 7 -3 -12 1891.08 177.849 6
 -7 3 -12 2244.82 178.31 6
 -7 3 -13 1710.28 161.417 6
 7 3 13 1706.19 159.414 8
 -7 3 -13 1573.67 154.407 5
 7 -3 -13 1885.79 159.675 4
 -7 3 -13 1519.44 193.293 3
 7 3 13 1897.43 154.681 7
 7 3 13 1689.49 168.458 1
 -7 -4 -13 3456.69 252.775 5
 -7 4 13 3231.04 212.146 8
 -7 -4 -13 3526.11 240.866 3
 7 -4 13 3419.58 236.902 7
 7 4 -13 3809.38 216.089 4
 7 -4 13 3028.44 216.163 1
 -7 4 13 2869.67 309.828 2
 -7 -4 -12 1197.5 152.198 5
 7 -4 12 988.563 132.825 7
 -7 -4 -12 1189.44 148.395 2
 -7 4 12 1282.06 137.112 8
 -7 -4 -12 1403.11 163.491 3
 -7 4 11 7105.63 311.456 8
 -7 -4 -11 6346.13 340.578 5
 7 -4 11 7451.84 334.007 7
 -7 -4 -11 6088.46 313.093 2
 7 4 -11 5379.34 267.535 4
 -7 -4 -11 6716.32 355.113 3
 -7 4 11 6344.32 458.905 2
 7 -4 11 6051.8 314.271 1
 7 4 -11 7216.58 301.274 6
 7 -4 11 6118.33 288.078 4
 -7 -4 -10 6303.43 353.008 3
 7 -4 10 4670.93 272.6 1
 7 4 -10 5662.6 270.37 6
 -7 4 10 5533.46 272.515 8
 7 -4 10 5290.45 275.095 7
 -7 -4 -10 5395.65 300.657 5
 7 -4 10 4661.36 248.317 4
 7 -4 9 2073.07 171.8 4
 7 -4 9 2453.53 202.78 7
 -7 -4 -9 2020.45 192.89 5
 -7 4 9 2021.67 266.195 2
 -7 -4 -9 1958.21 188.975 2
 7 4 -9 2184.46 168.52 4
 -7 4 9 2434.82 189.577 8
 -7 -4 -9 2399.99 222.414 3
 -7 -4 -8 16813.7 526.411 2
 -7 -4 -8 16715.8 573.722 3
 7 4 -8 22879.4 549.291 6
 7 -4 8 25101.7 646.317 1
 7 -4 8 17910.8 492.826 4
 7 -4 8 14898.5 450.562 7
 -7 4 8 17580.6 759.686 2
 -7 4 8 18387.3 502.411 8
 7 4 -8 15803.1 445.83 4
 7 4 -7 4855.29 248.547 4
 7 4 -7 5664.53 278.14 6
 -7 4 7 6123.14 290.229 8
 -7 -4 -7 5387.98 288.489 5
 7 -4 7 5635.93 273.877 4
 7 -4 7 6147.66 279.214 7
 -7 4 7 5053.04 411.743 2
 -7 -4 -6 24110.7 636.417 2
 7 -4 6 20233.6 510.639 4
 7 -4 6 19809 506.362 7
 -7 -4 -6 24929.5 701.939 3
 7 4 -6 27724.7 601.665 6
 -7 -4 -6 28542.2 601.573 5
 7 4 -6 22082.8 529.585 4
 -7 4 6 23596.6 857.478 2
 -7 -4 -5 3260.99 252.361 2
 7 4 -5 3897.79 219.502 6
 7 -4 5 3024.63 194.389 4
 -7 4 5 2538.4 281.328 2
 7 -4 5 2687.28 136.071 1
 -7 4 5 3164.3 216.663 8
 -7 -4 -5 3302.09 277.325 3
 7 -4 5 2098.17 157.395 7
 7 4 -5 2889.6 189.485 4
 -7 4 4 36662.2 679.174 5
 -7 -4 -4 35291.5 778.145 2
 -7 -4 -4 29412.1 604.779 5
 7 4 -4 37452.4 653.911 6
 7 -4 4 31768.8 639.318 4
 -7 4 4 36547 1004.58 2
 7 -4 4 29226.9 564.741 7
 -7 -4 -4 37959.6 908.594 3
 -7 4 4 39810.8 758.708 8
 7 4 -4 37323.1 732.521 7
 -7 -4 -3 1731.83 210.782 3
 7 4 -3 2007.03 154.637 4
 7 -4 3 1722.63 153.379 4
 -7 -4 -3 1835.16 189.792 2
 7 -4 3 1790.72 118.553 1
 7 4 -3 1718.82 146.18 6
 -7 4 3 1452.32 202.001 2
 -7 -4 -3 1205.74 123.181 5
 -7 4 3 1941.48 172.635 8
 7 4 -3 1875.15 167.736 7
 -7 4 3 1659.69 150.448 5
 7 4 -2 36672.7 654.47 4
 -7 -4 -2 35525.2 799.582 2
 7 4 -2 34363.9 688.772 7
 7 -4 2 34690.2 656.217 4
 -7 4 2 35805 663.635 5
 7 4 -1 2513.24 167.848 4
 -7 -4 -1 2982.34 249.38 2
 -7 4 1 2806.27 190.462 5
 7 -4 1 2276.8 176.215 4
 -7 4 1 2935.49 211.533 8
 7 4 -1 2593.43 190.73 7
 7 -4 0 22572.2 536.857 4
 -7 4 0 26847.8 637.926 8
 -7 4 0 21193.8 517.125 5
 -7 -4 0 20236.2 636.786 2
 7 4 0 23700.1 543.115 6
 7 4 0 24880.9 595.342 7
 7 4 1 2589.85 188.293 7
 -7 4 -1 3058.26 190.518 5
 -7 -4 1 2423.76 230.808 2
 -7 -4 1 2408.96 220.817 8
 -7 4 -1 2637.48 205.799 8
 7 4 1 2178.54 160.805 6
 7 -4 -1 2580.04 182.895 4
 7 4 2 26937 626.368 7
 -7 4 -2 30869.4 608.906 5
 -7 -4 2 31167.2 826.954 2
 -7 -4 2 31983.9 795.107 8
 -7 4 -2 28317.6 685.825 8
 7 4 2 32098.5 609.233 6
 7 -4 -2 29149.6 594.103 4
 7 4 3 982.775 118.969 7
 7 -4 -3 859.342 114.118 4
 -7 -4 3 1028.07 152.887 8
 -7 -4 3 1114.51 174.15 2
 7 -4 -3 944.436 113.651 3
 -7 4 -3 1006.48 121.21 5
 -7 -4 4 29669.8 795.492 1
 7 -4 -4 38135.9 714.716 6
 7 4 4 32331.9 639.842 7
 -7 -4 4 29286.2 861.274 2
 7 -4 -4 33186.7 612.918 3
 7 -4 -4 27855.2 627.06 4
 -7 4 -4 33731.7 664.34 5
 -7 -4 5 3819.09 276.176 8
 -7 -4 5 3344.18 279.451 1
 7 -4 -5 4370.09 249.663 6
 7 4 5 3090.32 198.632 7
 -7 -4 5 3243.23 296.507 2
 7 -4 -5 3711.86 213.201 3
 7 -4 -5 2972.85 201.476 4
 -7 4 -5 3467.03 217.311 5
 -7 -4 6 25349 711.235 8
 -7 -4 6 22363.2 692.391 1
 7 4 6 24378.8 555.466 7
 -7 -4 6 22810.1 790.576 2
 7 -4 -6 23938.7 545.982 3
 7 -4 -6 26946.4 639.405 6
 -7 4 -6 24839 578.055 5
 -7 -4 7 4570.93 325.746 1
 -7 4 -7 6404.77 289.981 5
 -7 -4 7 5406.94 403.197 2
 7 -4 -7 6969.6 338.715 6
 7 -4 -7 5159.87 271.092 4
 -7 -4 7 6000 363.107 8
 7 4 7 4803.41 240.22 7
 -7 -4 8 16604.9 580.098 8
 7 -4 -8 15718.2 437.767 3
 7 4 8 16155.6 442.942 7
 -7 -4 8 15175 671.931 2
 -7 4 -8 17899.4 502.217 5
 -7 -4 8 14397.1 559.292 1
 7 -4 -8 13322.6 450.548 4
 -7 4 -8 16463.3 643.105 3
 7 -4 -9 1879.33 165.93 4
 7 -4 -9 2144.28 169.176 3
 -7 4 -9 2460.82 266.974 3
 -7 -4 9 2057.75 225.048 1
 -7 -4 9 2252.1 219.497 8
 7 -4 -9 2400.07 206.159 6
 7 4 9 2197.59 130.43 1
 -7 -4 9 1842.55 261.659 2
 7 4 9 2347.52 171.333 7
 -7 4 -9 2335.76 182.064 5
 7 4 10 4477.5 230.584 7
 -7 -4 10 4881.77 395.147 2
 7 -4 -10 5098.94 300.465 6
 -7 -4 10 5263.95 327.918 8
 -7 4 -10 4466.48 245.453 5
 -7 4 -10 4571.72 332.823 3
 7 -4 -10 5206.71 269.336 4
 7 4 11 7458.55 253.564 1
 -7 -4 11 6773.87 373.672 8
 7 -4 -11 7089.14 316.277 4
 7 -4 -11 5946.33 273.705 3
 -7 4 -11 7053.84 308.506 5
 7 4 11 6202.1 274.931 7
 7 4 12 1084.21 129.616 8
 7 4 12 987.986 130.982 1
 7 -4 -12 979.704 116.344 3
 -7 4 -12 1100.73 155.322 3
 7 4 12 899.897 112.216 7
 7 4 13 3164.52 214.009 8
 -7 -4 13 2983.47 314.921 2
 7 4 13 3389.18 237.132 1
 -7 -4 13 2772.17 256.927 1
 -7 4 -13 3392.78 216.103 6
 7 4 13 3438.85 206.416 7
 -7 4 -13 3336.65 214.583 5
 7 -4 -13 3121.89 200.322 3
 7 -4 -13 3042.17 208.691 4
 7 5 -13 713.479 101.917 4
 7 -5 13 934.986 130.112 1
 -7 -5 -13 797.711 134.336 5
 -7 5 13 853.367 178.205 2
 -7 5 12 844.37 111.298 8
 -7 -5 -12 908.567 141.528 3
 7 5 -12 710.746 101.141 6
 -7 -5 -12 776.812 121.006 2
 7 -5 12 713.536 103.696 4
 7 5 -12 678.592 100.472 4
 7 -5 12 761.779 117.324 1
 -7 -5 -12 687.656 126.045 5
 -7 5 12 743.049 179.276 2
 -7 5 11 3488.65 232.338 8
 -7 -5 -11 4385.24 280.345 3
 -7 -5 -11 3435.19 235.826 2
 7 5 -11 3135.18 197.868 6
 7 5 -11 3555.57 220.468 4
 -7 -5 -11 3167.71 255.274 5
 7 -5 11 3597.75 220.995 4
 -7 5 11 3700.55 356.042 2
 -7 5 10 1350.03 145.361 8
 -7 -5 -10 1147.83 165.702 3
 7 -5 10 1164.65 128.621 4
 -7 -5 -10 1258.26 152.388 2
 -7 5 10 1120.11 208.773 2
 7 5 -10 962.65 122.417 4
 7 -5 10 1412.42 158.88 1
 7 5 -10 1066.48 119.272 6
 -7 5 9 7497.14 500.96 2
 -7 -5 -9 7002.82 351.919 2
 7 5 -9 7413.98 311.487 4
 -7 -5 -9 7936.35 372.506 5
 7 5 -8 1468.94 147.342 4
 7 5 -8 2267.5 176.539 6
 -7 5 8 1720.66 254.793 2
 7 -5 8 1579.69 159.013 4
 -7 -5 -8 1981.29 209.064 3
 -7 -5 -8 1919.88 187.792 5
 7 -5 8 1556.19 165.737 1
 -7 -5 -8 1698.39 173.171 2
 7 -5 7 20913 587.788 1
 -7 5 7 20263.6 858.327 2
 7 5 -7 23038.1 542.864 4
 -7 -5 -7 25182.2 646.79 5
 7 5 -7 23565.9 564.599 6
 7 -5 7 23000.2 552.954 4
 -7 -5 -7 21582 647.64 3
 -7 5 7 22750 558.817 8
 7 -5 6 6761.56 332.27 1
 -7 -5 -6 6220 348.499 3
 -7 5 6 7046.86 480.753 2
 7 5 -6 5862.99 279.248 4
 7 -5 6 6574.64 305.955 4
 -7 -5 -6 6394.72 337.634 2
 -7 -5 -6 5892.38 306.105 5
 7 -5 5 23110.8 537.655 4
 -7 -5 -5 24393.5 659.448 2
 7 5 -5 21002.1 524.692 6
 7 5 -5 23865 597.657 7
 -7 -5 -5 26105 722.424 3
 -7 5 5 21155.5 554.151 8
 7 5 -5 21015.6 522.268 4
 -7 5 5 19915.2 786.048 2
 7 -5 4 11301.1 376.226 4
 -7 -5 -4 14765.9 514.215 2
 -7 5 4 14889.9 433.584 5
 7 5 -4 13467.8 400.573 6
 7 5 -4 13201 445.413 7
 -7 -5 -4 14386.5 546.267 3
 7 -5 4 16214.7 365.937 1
 -7 5 4 15124 470.017 8
 7 5 -4 13188.1 392.488 4
 -7 5 4 13308.8 615.215 2
 -7 5 3 42511 782.586 8
 7 -5 3 46339.6 782.696 4
 7 5 -3 46519.7 825.055 7
 7 5 -3 39836.2 685.656 6
 -7 -5 -3 41517.8 937.366 3
 -7 5 3 42057.4 736.964 5
 -7 -5 -3 36844.9 826.521 2
 7 5 -2 31782.5 675.439 7
 -7 5 2 29711.4 657.006 8
 7 -5 2 28635.6 596.781 4
 7 5 -2 27579.6 580.061 6
 7 -5 2 27065.2 418.115 1
 -7 5 2 32972.8 641.931 5
 -7 -5 -2 34073.6 950.713 3
 -7 -5 -2 21600.8 756.817 2
 7 -5 1 16091.3 483.514 4
 7 -5 1 15738.4 312.723 1
 7 5 -1 19008.8 514.162 7
 -7 5 1 21310.3 522.824 5
 -7 -5 -1 19324.7 665.51 3
 -7 5 1 18158.4 523.763 8
 -7 -5 -1 20018.4 614.658 2
 7 5 0 32458 688.884 7
 -7 -5 0 26873.2 794.55 3
 -7 5 0 29201.8 682.56 5
 7 -5 0 28016.6 595.489 4
 -7 -5 0 30558.5 792.268 2
 7 5 0 33030.1 660.148 6
 -7 5 0 29602.5 670.627 8
 7 5 1 21675.7 544.571 7
 -7 -5 1 19819.7 637.574 2
 7 5 1 22528.5 509.574 6
 -7 5 -1 18979.4 484.154 5
 -7 5 -2 27742.3 590.444 5
 -7 -5 2 31030.6 784.514 8
 7 5 2 30632.4 631.471 7
 7 -5 -2 31086.4 625.685 4
 -7 -5 2 29864 816.082 2
 7 5 2 26374.8 582.261 6
 -7 5 -3 43411 743.65 5
 -7 -5 3 41768.2 964.447 8
 7 5 3 42987.2 757.774 7
 7 -5 -3 40502.4 727.369 4
 -7 -5 3 37590.7 945.842 2
 7 -5 -3 37844.2 664.932 3
 7 -5 -4 14708.4 422.123 3
 7 5 4 14707.7 441.358 7
 7 -5 -4 12776.3 430.4 6
 -7 -5 4 15790.7 647.959 2
 -7 -5 4 13002.4 522.341 8
 7 -5 -4 14172.6 437.402 4
 -7 -5 4 15371.8 583.037 1
 -7 -5 5 23272.1 737.184 1
 -7 -5 5 24874.3 808.643 2
 7 5 5 23877.4 548.666 7
 7 -5 -5 24720.7 551.047 3
 -7 5 -5 25881 589.763 5
 7 -5 -5 23948.8 583.781 4
 -7 -5 6 7005.2 394.504 1
 -7 -5 6 6465.91 421.35 2
 7 -5 -6 6390.6 309.745 6
 7 5 6 7020.12 301.472 7
 -7 -5 6 7650.22 399.835 8
 7 -5 -6 6727.71 298.189 3
 -7 5 -6 7035.92 311.305 5
 -7 -5 7 23019.5 713.084 1
 7 5 7 24212.6 542.774 7
 -7 -5 7 23979.8 823 2
 7 -5 -7 24704.7 595.371 4
 7 -5 -7 24341.7 546.361 3
 -7 5 -7 23959.5 579.518 5
 -7 5 -8 1438.43 149.689 5
 -7 5 -8 1735.21 225.05 3
 7 5 8 1318.22 131.16 7
 -7 -5 8 1616.15 228.744 2
 -7 -5 8 1551.68 192.306 1
 -7 -5 8 1807.78 206.599 8
 7 -5 -8 1487.94 141.416 3
 -7 5 -9 7172.26 432.748 3
 -7 -5 9 8447.66 438.741 1
 7 -5 -9 7738.26 310.975 3
 -7 -5 9 8725.44 452.113 8
 7 -5 -9 9178.54 378.749 4
 7 -5 -10 786.123 107.001 3
 7 5 10 723.062 97.7839 7
 -7 -5 10 981.575 185.844 2
 7 -5 -10 763.603 119.856 4
 -7 -5 10 851.981 149.971 1
 7 5 10 695.194 79.8085 1
 7 5 11 4259.76 195.298 1
 7 -5 -11 3306.88 204.687 3
 7 5 11 3814.5 215.928 7
 -7 -5 11 3636.03 344.62 2
 7 -5 -11 4159.07 258.4 4
 -7 5 -11 3343.85 216.188 5
 -7 5 -12 596.845 98.288 5
 7 5 12 536.552 95.656 8
 7 -5 -12 546.384 91.8443 3
 7 5 12 535.456 104.425 1
 7 5 12 543.039 85.3019 7
 7 -5 -12 795.281 123.861 4
 -7 -5 12 769.364 167.539 2
 -7 5 -12 678.793 104.165 6
 7 -5 -13 929.659 115.211 3
 -7 -5 13 1125.95 196.044 2
 -7 -5 13 1185.03 170.761 1
 -7 5 -13 1326.95 137.203 5
 7 5 13 960.772 119.696 8
 -7 5 -13 820.482 120.765 6
 7 -5 -13 1278.95 151.066 4
 -7 6 12 916.437 188.121 2
 -7 -6 -12 764.774 130.877 2
 -7 6 12 1048.78 124.599 8
 7 -6 12 933.371 115.892 4
 7 6 -12 892.019 112.183 6
 7 -6 12 850.764 126.361 1
 -7 -6 -12 1176.07 149.328 3
 7 6 -12 1052.92 124.133 4
 7 -6 11 555.534 92.461 4
 7 6 -11 381.566 81.9275 6
 -7 6 11 565.341 154.29 2
 -7 6 11 552.001 93.2748 8
 7 6 -11 509.558 90.6702 4
 7 -6 10 2633.08 209.841 1
 7 -6 10 3076.55 198.614 4
 -7 -6 -10 3156.97 228.173 2
 -7 6 10 2841.51 320.135 2
 -7 -6 -10 3532.63 260.428 3
 7 6 -10 2333.1 188.58 4
 7 6 -9 993.488 118.792 6
 -7 -6 -9 1345.76 158.669 2
 7 6 -9 1118.53 128.361 4
 7 -6 9 1238.01 135.926 4
 -7 6 9 1382.29 141.689 8
 -7 6 9 1158.12 214.151 2
 -7 -6 -9 1247.75 158.843 3
 7 6 -8 6213.84 288.393 6
 7 6 -8 5673.44 281.55 4
 7 -6 8 5543.69 306.767 1
 -7 -6 -8 6734.74 373.37 3
 -7 6 8 5436.34 460.619 2
 -7 6 8 5459.17 295.375 8
 -7 -6 -8 6397.55 334.667 2
 7 -6 8 6511.13 298.695 4
 -7 -6 -7 5011.9 325.983 3
 -7 -6 -7 5112.21 295.679 2
 7 6 -7 5580.77 277.811 6
 -7 6 7 4944.68 262.73 8
 7 -6 7 5373.35 272.746 4
 -7 6 6 10838.9 393.879 8
 7 6 -6 10530.2 389.985 6
 -7 -6 -6 11374.8 443.512 2
 -7 -6 -6 11284.1 482.532 3
 -7 6 5 11706 399.668 5
 -7 6 5 10937.7 405.712 8
 -7 -6 -5 11254.6 449.844 2
 7 6 -5 12152.4 434.919 7
 7 -6 5 12069.1 461.918 1
 7 -6 5 11485.6 387.986 4
 -7 -6 -4 10684.5 462.849 3
 7 6 -4 10336.8 360.976 6
 7 -6 3 11646.3 397.852 4
 -7 -6 -3 10531.9 440.851 2
 -7 6 3 12110.4 415.843 5
 -7 -6 -3 10111.9 441.408 3
 7 6 -3 9231.06 398.097 7
 -7 6 3 10182.3 391.542 8
 7 6 -3 10071.5 354.97 6
 7 -6 2 10969.1 378.907 4
 -7 -6 -2 12664 493.039 2
 -7 6 2 11585.6 390.729 5
 7 6 -2 11879.3 423.365 7
 7 6 -2 11405.4 379.229 6
 -7 6 2 10100.3 392.032 8
 7 6 -1 19650.6 524.471 7
 7 -6 1 20644.7 532.511 4
 -7 6 1 19761.9 529.218 5
 -7 -6 -1 20519.7 634.648 2
 -7 6 1 20855.8 570.852 8
 7 -6 0 5679.49 355.985 4
 -7 -6 0 5439.17 342.484 2
 -7 6 0 6040.71 289.634 5
 7 6 0 6277.63 307.747 7
 7 6 0 6407.8 299.24 6
 -7 6 -1 21454.3 529.646 5
 -7 -6 1 22052.1 698.434 2
 7 6 1 22473.5 566.451 7
 -7 6 -2 9760.87 360.516 5
 -7 -6 2 10346.1 478.913 2
 7 6 2 11262.8 393.666 7
 7 6 3 11201.9 396.842 7
 -7 -6 3 11186.4 511.789 2
 -7 6 -3 11225 385.755 5
 7 -6 -3 11627.8 391.072 4
 7 -6 -4 10627.6 419.476 6
 -7 -6 4 10363 481.969 8
 7 -6 -4 10434.4 376.086 4
 -7 -6 5 10104.4 479.705 1
 -7 -6 5 9184.33 501.474 2
 7 -6 -5 9737.89 347.032 3
 7 6 5 9396.88 349.934 7
 7 -6 -5 8248.21 365.889 6
 -7 6 -5 9510.7 365.48 5
 7 -6 -5 10107.3 369.886 4
 -7 -6 6 9993.86 533.022 2
 -7 6 -6 12278.3 415.654 5
 -7 -6 6 10899 494.821 1
 7 -6 -6 12436.3 426.606 4
 7 6 6 10256 370.532 7
 7 -6 -6 9651.28 362.539 3
 7 -6 -7 3941.16 225.159 3
 7 -6 -7 4965.95 280.951 4
 -7 -6 7 3553.27 295.086 8
 7 6 7 4152.78 234.005 7
 -7 6 -7 2681.36 205.292 5
 -7 -6 7 4103.53 305.652 1
 7 -6 -8 5867.71 271.586 3
 7 6 8 5920.8 269.767 7
 -7 6 -8 5236.79 277.112 5
 -7 -6 8 5906.33 360.698 1
 -7 -6 8 4978.4 342.635 8
 -7 -6 8 5888.16 414.99 2
 -7 6 -8 5384.15 400.052 3
 -7 -6 9 956.619 183.496 2
 7 6 9 1210.1 134.756 7
 7 -6 -9 1006.24 127.609 4
 -7 -6 9 1162.41 171.108 1
 -7 6 -9 1083.36 190.573 3
 -7 6 -9 1057.78 131.919 5
 7 -6 -9 1110.32 123.704 3
 -7 -6 10 2950.78 267.237 1
 7 6 10 2806.83 147.661 1
 -7 -6 10 3006.27 311.173 2
 -7 6 -10 2642.05 193.695 5
 7 -6 -10 3231.75 203.142 3
 7 6 12 1039.06 124.518 8
 7 -6 -12 927.277 112.668 3
 -7 6 -12 1141.53 131.604 6
 -7 -6 12 1104.23 193.465 2
 -7 -6 12 1454.81 189.127 1
 7 6 12 1008.95 113.535 7
 -7 6 -12 1145.46 130.421 5
 -7 -7 -11 620.821 108.583 2
 7 7 -11 757.277 105.662 6
 -7 7 11 754.752 105.918 8
 7 -7 11 469.2 102.007 1
 7 -7 11 564.128 92.1627 4
 -7 -7 -11 710.411 127.932 3
 7 7 -10 1156.81 130.921 6
 -7 7 10 1247.74 134.423 8
 7 -7 10 1078.01 143.361 1
 -7 -7 -10 1202.63 183.531 3
 -7 -7 -10 1141.96 142.391 2
 -7 7 9 2120.7 173.551 8
 -7 -7 -9 1992.48 200.747 3
 7 -7 9 1856.5 169.674 4
 7 7 -9 1843.03 159.203 6
 7 -7 9 1545.95 169.068 1
 -7 -7 -9 2401.7 209.015 2
 -7 -7 -8 2018.02 188.272 2
 7 -7 8 1939.43 174.741 4
 7 -7 7 2849.45 229.662 1
 7 7 -7 3142.09 213.666 6
 7 -7 7 3243.07 213.488 4
 -7 -7 -7 2771.57 221.99 2
 -7 7 7 2795.92 201.644 8
 7 -7 6 10429.4 376.077 4
 -7 7 6 8090.2 345.183 8
 7 7 -6 8737.39 379.911 7
 -7 -7 -6 8483.17 385.932 2
 7 -7 6 6539.19 346.867 1
 -7 -7 -6 8807.83 432.501 3
 -7 -7 -5 6429.8 402.144 3
 7 -7 5 4443.18 281.024 1
 -7 7 5 5249.48 269.859 5
 -7 -7 -5 5897.65 327.59 2
 7 -7 5 6001.91 283.456 4
 7 7 -5 4948.61 275.592 6
 7 7 -5 5179.77 295.871 7
 -7 7 5 5536.66 293.933 8
 -7 7 4 36454.3 756.416 8
 7 -7 4 31015.3 636.467 4
 -7 -7 -4 36511.9 848.834 2
 -7 -7 -4 29392.4 783.544 3
 7 7 -4 34740.8 755.782 7
 7 7 -4 37398.5 696.109 6
 -7 7 3 3817.67 247.561 8
 -7 -7 -3 3531.47 270.563 3
 -7 -7 -3 3796.33 268.465 2
 7 7 -3 4159.2 259.374 7
 7 7 -3 3655.05 218.087 6
 -7 7 3 4442.06 252.307 5
 -7 -7 -2 51571.5 1023.97 2
 7 7 -2 48643.6 809.994 6
 7 -7 0 73897.9 1038.94 4
 7 -7 -1 445.119 98.0371 4
 -7 -7 3 3516.19 295.708 2
 7 -7 -3 3590.7 210.372 3
 7 7 3 3904.27 242.685 7
 7 -7 -4 35646.9 662.395 3
 -7 -7 4 36831.5 961.651 2
 7 7 4 34588.7 699.221 7
 -7 -7 5 5019.93 353.266 1
 7 -7 -5 5406.32 295.355 4
 -7 7 -5 4856.95 269.431 5
 7 -7 -5 5442.21 263.004 3
 7 7 5 5018.7 261.185 7
 7 -7 -6 9176.87 346.692 3
 7 7 6 8811.14 344.373 7
 -7 7 -6 10310.1 385.656 5
 -7 -7 6 9808.38 520.761 2
 -7 -7 6 7025.14 420.321 8
 -7 -7 6 7947.57 433.47 1
 7 -7 -7 2790.24 196.102 3
 -7 7 -7 1437.47 167.943 5
 -7 -7 7 2538.52 277.034 2
 -7 -7 7 1581.93 216.856 8
 -7 -7 7 2473.06 248.867 1
 7 -7 -7 2250.37 191.795 4
 7 -7 -8 2122.86 168.25 3
 -7 -7 8 1748.9 208.401 1
 7 7 8 1694.02 149.7 7
 -7 7 -8 2043.67 176.659 5
 7 -7 -9 1713.13 174.755 4
 -7 7 -9 1724.53 165.852 5
 7 -7 -9 1873.52 156.529 3
 7 7 9 2031.88 170.93 7
 -7 -7 9 1854.89 251.283 2
 -7 -7 9 1989.67 219.84 1
 -7 7 -10 1243.18 139.074 5
 -7 -7 10 1259.92 206.571 2
 7 7 10 1305.1 128.103 7
 7 -7 -10 1498.75 165.049 4
 7 7 11 578.545 88.814 7
 7 7 11 641.276 102.07 8
 -7 -7 11 584.05 147.332 2
 -7 -7 11 683.17 136.207 1
 7 -7 -11 509.958 110.978 4
 -7 7 -11 714.331 106.251 5
 -7 7 -11 589.944 97.6775 6
 7 -7 -11 629.547 94.8342 3
 7 -7 -12 671.523 122.548 4
 -7 -7 12 563.688 144.394 2
 7 -8 11 461.14 88.8486 4
 7 8 -11 435.168 88.284 6
 -7 -8 -11 410.462 92.4555 2
 -7 8 11 549.561 96.666 8
 7 -8 11 576.303 122.378 1
 -7 -8 -11 517.774 110.647 3
 7 -8 10 864.099 109.178 4
 7 8 -10 598.483 100.88 6
 -7 -8 -10 444.447 102.151 2
 7 -8 10 609.124 114.357 1
 -7 -8 -10 726.646 130.449 3
 -7 8 10 602.728 98.9697 8
 7 -8 9 952.677 141.1 1
 -7 -8 -9 1516.89 167.754 2
 7 8 -9 1650.57 154.353 6
 -7 -8 -9 1504.56 173.918 3
 7 -8 9 1538.73 148.725 4
 -7 8 9 1621.82 157.988 8
 7 -8 8 620.177 115.483 1
 7 -8 8 842.762 116.601 4
 -7 -8 -8 656.648 135.398 3
 7 8 -8 652.684 106.763 6
 -7 -8 -8 784.912 119.083 2
 -7 8 8 809.122 118.223 8
 -7 -8 -7 5745.44 337.252 3
 -7 -8 -7 5625.4 312.352 2
 7 8 -7 5772.99 315.391 7
 -7 -8 -6 1092.72 158.576 3
 -7 8 6 1055.05 134.472 8
 7 8 -6 963.598 129.372 6
 -7 8 5 8557.63 370.41 8
 7 -8 5 9328.88 375.649 4
 7 8 -5 8370.03 353.213 6
 -7 8 5 8513.48 353.14 5
 7 8 -5 9460.9 402.406 7
 -7 -8 -5 9353.14 410.33 2
 -7 8 4 3235.88 219.02 5
 -7 -8 -4 3260.04 253.033 2
 7 8 -4 2671.69 237.342 7
 7 -8 4 2930.82 202.96 4
 -7 8 3 18210.3 504.906 5
 -7 -8 -3 16775.8 582.541 2
 7 8 -3 17954.8 541.306 7
 -7 8 2 2936.52 216.233 5
 7 8 -2 2786.45 215.832 7
 7 -8 2 2282.5 184.617 4
 -7 -8 -2 2754.93 236.984 2
 7 8 -1 23574.2 609.078 7
 7 -8 1 21968.8 563.848 4
 -7 -8 -1 23450.7 699.435 2
 7 8 0 756.812 116.119 7
 -7 8 0 558.992 103.44 5
 7 -8 0 582.012 100.462 4
 -7 -8 0 521.183 127.541 2
 -7 -8 1 19798.5 656.13 2
 7 8 1 21136.6 575.639 7
 -7 -8 2 2846.64 269.69 2
 7 8 2 2929.76 207.791 7
 -7 8 -2 2932.81 203.757 5
 -7 -8 3 14543.5 592.575 2
 7 -8 -3 13351 436.018 4
 -7 8 -3 13218.5 441.63 5
 7 -8 -3 15154.1 435.658 3
 -7 -8 4 2688.01 276.72 1
 -7 8 -4 3191.43 220.089 5
 7 8 4 2732.35 203.821 7
 7 -8 -4 2220.62 193.309 4
 7 -8 -4 2978.94 196.835 3
 -7 -8 4 2553.48 255.451 2
 -7 -8 5 9166.07 472.026 1
 -7 8 -5 7574.37 332.676 5
 7 8 5 8047.78 332.877 7
 7 -8 -5 8849.51 370.032 4
 -7 -8 5 6608.97 421.606 2
 7 -8 -5 8410.24 328.296 3
 7 -8 -6 1130.52 140.797 4
 7 8 6 1317.87 138.542 7
 -7 -8 6 962.389 177.041 2
 -7 8 -6 1102.22 133.29 5
 -7 8 -7 5328.22 292.864 5
 7 8 7 4863.52 254.536 7
 7 -8 -7 5469.19 281.216 3
 -7 -8 7 5033.81 342.849 1
 7 -8 -8 494.981 101.071 4
 -7 -8 8 730.185 143.386 1
 7 -8 -8 900.52 115.086 3
 7 8 8 692.797 99.0765 7
 -7 8 -8 789.058 115.241 5
 -7 -8 8 618.24 148.998 2
 7 -8 -9 1199.69 159.774 4
 7 -8 -9 1556.04 145.074 3
 -7 -8 9 1293.8 183.359 1
 7 8 9 1401.35 144.955 7
 -7 -8 9 1242.97 205.091 2
 -7 8 -9 1550.53 155.722 5
 7 -8 -10 422.567 94.8214 4
 -7 8 -10 481.378 94.412 5
 7 -8 -10 522.494 90.313 3
 7 8 10 526.264 87.3673 7
 -7 -8 10 626.655 133.126 1
 -7 -8 10 469.585 136.017 2
 7 8 11 522.959 86.4327 7
 -7 -8 11 754.321 140.547 1
 -7 8 -11 478.204 92.8068 6
 -7 8 -11 478.01 91.4077 5
 7 -8 -11 526.585 89.1881 3
 -7 -8 11 465.417 135.276 2
 7 8 11 504.873 94.9753 8
 -7 9 10 396.777 89.359 8
 7 9 -10 322.362 87.4767 6
 7 -9 10 464.169 85.1735 4
 -7 -9 -10 464.169 105.704 3
 -7 -9 -10 326.279 88.6186 2
 -7 9 9 446.02 100.282 8
 7 -9 9 694.303 105.13 4
 -7 -9 -9 601.018 113.856 2
 7 9 -9 685.548 116.799 7
 -7 -9 -9 612.308 121.379 3
 7 9 -9 528.508 103.658 6
 -7 9 8 1592.29 158.398 8
 7 9 -8 1633.64 168.155 6
 7 9 -7 4358.18 275.249 7
 7 9 -7 5037.94 281.628 6
 -7 9 7 3760.59 240.173 5
 -7 -9 -7 3797.23 260.209 2
 -7 9 7 3546.86 236.719 8
 7 -9 7 2997.95 210.584 4
 -7 -9 -6 4345.51 279.41 2
 -7 9 6 4948.42 271.902 5
 7 9 -6 4595.42 285.615 7
 7 -9 6 4529.08 258.297 4
 7 9 -5 10545.6 431.583 7
 7 -9 5 17415.6 495.76 4
 -7 9 4 9504.37 379.441 5
 -7 -9 -3 22137.3 682.733 2
 7 -9 3 20878.9 537.162 4
 -7 -9 -2 11729.8 499.055 2
 7 9 -2 12277 443.979 7
 -7 9 2 10815 404.811 5
 7 -9 2 12263.8 412.436 4
 7 9 -1 37926.6 810.195 7
 -7 9 1 38019.8 780.585 5
 7 -9 1 35904.1 734.026 4
 -7 -9 0 12036.9 524.843 2
 7 -9 0 11877.8 423.456 4
 7 9 0 12539.4 452.08 7
 -7 9 0 10865.4 401.593 5
 7 -9 -1 32252.4 688.099 4
 7 9 1 35043.2 744.156 7
 -7 -9 2 11082.1 505.286 2
 -7 9 -2 10977.6 397.564 5
 7 -9 -2 12115.6 450.198 4
 7 9 2 12361 427.903 7
 -7 -9 3 15667.3 648.144 2
 7 9 3 15338.4 495.615 7
 7 -9 -4 9200.05 383.541 4
 -7 9 -4 9260.75 374.043 5
 7 -9 -4 9602.92 350.032 3
 7 9 4 9551.51 384.324 7
 -7 -9 4 8798.01 479.332 2
 7 -9 -5 9183.26 345.789 3
 -7 -9 5 9126.72 479.234 1
 7 -9 -5 10463.8 427.531 4
 -7 -9 6 3678.8 317.36 2
 -7 9 -6 4463.27 258.902 5
 7 -9 -6 4668.42 250.272 3
 -7 -9 6 4251.63 331.708 1
 7 9 6 4488.08 259.11 7
 7 -9 -7 3452.7 222.797 3
 -7 9 -7 2847.01 211.94 5
 7 -9 -7 3308.23 241.316 4
 -7 -9 7 3063.13 275.395 1
 7 9 7 2887.07 203.544 7
 -7 -9 8 1339.5 204.248 2
 -7 9 -8 1575.07 163.284 5
 7 -9 -8 1517.85 177.439 4
 7 9 8 1426.56 142.758 7
 7 -9 -9 555.976 96.0661 3
 -7 9 -9 638.623 108.068 5
 -7 -9 9 362.015 121.901 2
 7 9 9 582.604 96.9177 7
 -7 -9 9 490.794 125.372 1
 -7 -9 10 544.613 124.4 1
 7 9 10 408.536 87.3269 8
 7 9 10 399.953 78.4272 7
 7 -9 -10 445.016 84.4249 3
 -7 9 -10 312.839 87.3622 6
 7 10 -9 527.624 106.329 7
 7 -10 9 515.591 89.6328 4
 -7 10 9 515.436 97.2998 5
 -7 -10 -9 439.85 96.3258 2
 -7 10 8 1769.56 166.255 5
 -7 -10 -8 1531.42 172.138 2
 7 -10 7 1589.31 156.552 4
 -7 10 7 1473.8 156.544 5
 -7 -10 -7 1457.06 164.014 2
 7 10 -6 2817.15 230.027 7
 -7 -10 -6 2618.16 222.202 2
 -7 10 6 3033.28 217.868 5
 7 -10 6 2413.04 195.979 4
 7 10 -5 2628.37 219.018 7
 -7 -10 -5 2099.2 206.748 2
 -7 10 5 2840.39 213.132 5
 7 -10 5 2169.39 189.397 4
 7 10 -4 4021.04 274.062 7
 -7 -10 -4 3999.49 281.064 2
 -7 10 4 3900.53 248.363 5
 -7 10 3 1999.73 182.85 5
 7 -10 3 1723.05 165.525 4
 -7 -10 -2 4971.31 328.457 2
 7 10 -2 5076.83 300.907 7
 7 -10 1 1774.06 166.61 4
 -7 10 0 6324.55 305.468 5
 7 -10 0 7197.85 340.425 4
 -7 10 -1 1770.63 167.677 5
 7 -10 -1 1754.9 174.141 4
 7 -10 -2 4493.6 270.018 4
 -7 -10 3 2012.96 228.818 2
 7 10 3 2501.84 204.348 7
 7 10 4 3958.97 247.288 7
 -7 -10 4 3574.71 302.159 2
 7 -10 -4 4115.83 238.578 3
 -7 10 -4 4333.23 282.28 5
 7 -10 -4 3253.22 246.535 4
 -7 -10 5 2745.27 270.006 1
 -7 -10 5 1783.12 230.789 2
 7 -10 -5 2748.64 193.124 3
 -7 10 -5 2119.48 188.795 5
 7 10 5 2281.44 188.029 7
 7 -10 -5 2933.87 243.188 4
 7 -10 -6 3209.46 209.389 3
 -7 -10 6 2449.51 269.496 2
 -7 10 -6 3266.23 225.373 5
 7 10 6 3084.62 218.617 7
 -7 10 -7 869.73 125.155 5
 -7 -10 7 1140.87 193.597 2
 -7 -10 8 1183.04 180.598 1
 7 10 8 1546.35 151.321 7
 7 -10 -8 1521.66 146.689 3
 -7 -10 9 492.742 125.816 1
 7 10 9 535.954 93.9784 7
 -7 10 -9 530.267 99.2795 6
 7 -10 -9 584.473 96.4916 3
 -7 11 7 1679.19 169.558 5
 -7 -11 -7 2069.91 197.846 2
 7 11 -7 2043.08 201.488 7
 -7 11 6 676.395 111.279 5
 7 -11 6 645.19 108.892 4
 -7 -11 -6 582.875 111.28 2
 7 11 -6 455.271 101.828 7
 -7 -11 -5 6045.81 346.697 2
 7 11 -5 7162.07 368.188 7
 -7 11 4 1646.63 172.85 5
 7 -11 4 1455.69 156.198 4
 -7 -11 -4 1477.67 177.874 2
 7 11 -4 1615.83 174.531 7
 -7 -11 -3 9785.77 448.139 2
 7 -11 3 9890.7 395.813 4
 7 11 -2 496.922 109.678 7
 -7 11 2 379.621 89.0514 5
 7 -11 2 506.15 97.6248 4
 -7 -11 -1 18454.2 651.789 2
 -7 11 1 18051.9 536.509 5
 7 11 -1 17385.6 561.969 7
 7 -11 0 342.39 84.4289 4
 -7 11 0 257.72 77.3956 5
 7 11 0 306.678 85.2121 7
 -7 -11 0 438.64 120.108 2
 -7 -11 1 16157.4 599.912 2
 7 11 1 17618.5 538.258 7
 -7 11 -1 17257.4 511.314 5
 -7 -11 2 450.097 118.031 2
 -7 11 -2 633.347 113.772 5
 7 -11 -2 361.141 96.9209 4
 7 11 2 508.796 106.177 7
 7 -11 -3 9172.75 397.162 4
 -7 -11 3 8349.61 463.169 2
 7 11 4 1383.39 151.681 7
 -7 -11 4 1357.91 205.221 2
 -7 -11 5 5476.03 381.716 2
 7 -11 -6 662.537 108.123 3
 -7 -11 6 705.684 160.708 1
 7 11 6 635.908 102.129 7
 7 -11 -7 1459.58 144.864 3
 -7 -11 7 1767.14 223.684 1
 7 11 7 1580.61 155.509 7
 7 -12 5 1008 137.655 4
 -7 12 5 1311.4 157.116 5
 -7 -12 -5 1487.89 173.367 2
 7 12 -5 1478.16 175.845 7
 7 12 -4 1004.37 141.991 7
 -7 -12 -4 1127.61 162.067 2
 7 -12 4 838.108 126.591 4
 7 12 -3 1265.67 159.78 7
 -7 12 3 1277.23 164.462 5
 -7 -12 -3 1183.04 164.282 2
 7 -12 3 900.715 136.024 4
 -7 -12 -2 1504.91 182.332 2
 7 12 -2 1500.48 173.089 7
 -7 12 2 1538.43 165.635 5
 7 -12 1 455.562 102.615 4
 7 12 2 1801.26 186.748 7
 7 12 3 815.313 143.918 7
 -7 -13 -2 2988.61 262.466 2
 -7 -13 -1 723.65 137.474 2
 8 0 0 1105.04 123.869 7
 8 0 0 1001.42 117.872 6
 8 0 0 979.05 118.424 4
 -8 0 0 1116.82 152.458 8
 8 0 1 872.556 107.133 4
 8 0 -1 824.513 105.324 4
 8 0 -1 904.831 115.47 6
 -8 0 -1 949.939 119.298 5
 8 0 -1 887.047 111.984 7
 8 0 1 982.284 121.166 6
 -8 0 -1 1036.97 154.049 8
 -8 0 1 977.789 140.902 8
 -8 0 1 766.335 140.254 2
 8 0 2 1681.86 157.884 4
 8 0 -2 1562.27 148.95 4
 8 0 -2 2566.71 191.406 6
 -8 0 -2 3036.39 203.111 5
 8 0 2 2279.97 182.094 7
 8 0 -2 1480.46 148.359 7
 -8 0 2 2286.69 211.49 8
 -8 0 2 1624.2 207.517 2
 -8 0 3 10161.5 432.817 8
 8 0 3 13185.3 409.104 7
 -8 0 3 11733.5 534.039 2
 8 0 -3 10563.3 397.094 6
 -8 0 3 13095.2 422.263 5
 -8 0 -3 13418.1 423.832 5
 8 0 3 10568.4 363.793 4
 8 0 -3 14117.9 420.462 4
 8 0 4 4304.22 240.722 4
 -8 0 -4 4346.78 281.79 2
 -8 0 4 4617.18 247.466 5
 -8 0 4 4611.43 287.723 8
 8 0 4 4131.32 232.507 7
 8 0 -4 4702.46 258.515 4
 8 0 -4 4544.8 257.613 6
 -8 0 -4 5089.4 266.975 5
 -8 0 4 4719.03 352.244 2
 8 0 -4 4747.78 261.154 7
 -8 0 5 18489.4 714.214 2
 -8 0 -5 26581.5 630.818 5
 -8 0 5 24524.5 575.695 5
 -8 0 -5 19675.4 597.217 2
 8 0 5 21992.3 518.147 7
 8 0 -5 22123.5 565.367 7
 -8 0 5 23202.3 637.466 8
 8 0 5 18752.7 488.641 4
 8 0 -5 21824.8 670.109 6
 8 0 -5 19733.1 524.636 4
 8 0 6 16813.8 502.719 4
 -8 0 -6 15551.4 520.647 2
 8 0 6 16106.3 450.606 7
 -8 0 6 15830.5 465.377 5
 -8 0 6 16324.5 526.924 8
 -8 0 -6 16086.6 656.055 3
 8 0 -6 15415.6 450.829 6
 8 0 7 21954.5 561.118 4
 8 0 7 20977.6 519.319 7
 8 0 -7 22606.9 591.234 7
 8 0 -7 20695.9 528.062 6
 -8 0 -7 23780.3 777.011 3
 -8 0 7 22211.9 604.816 8
 -8 0 7 22840.5 561.461 5
 -8 0 -7 19074.2 542.423 5
 8 0 -7 19137 501.411 4
 8 0 -8 14005.6 409.641 4
 -8 0 8 12840.7 638.93 2
 -8 0 8 12707.8 461.127 8
 8 0 -8 13174.2 428.414 6
 8 0 8 12290.9 393.305 7
 8 0 8 12546.4 293.784 1
 -8 0 9 9272.53 535.512 2
 -8 0 -9 10156.6 374.62 5
 8 0 -9 9605.09 364.343 6
 -8 0 -9 9745.76 478.291 3
 8 0 9 9012.58 335.278 7
 8 0 -9 9168.06 339.229 4
 8 0 -10 4348.65 238.259 4
 -8 0 10 4289.35 370.574 2
 -8 0 -10 4124.75 244.128 5
 -8 0 10 2855.6 307.751 8
 8 0 -10 4357.9 245.901 6
 -8 0 -10 4346.61 296.77 3
 8 0 10 3972.47 224.685 7
 8 0 10 2818.66 178.335 1
 8 0 -11 4853.4 251.866 4
 -8 0 11 4262.31 372.169 2
 -8 0 -11 5610.67 292.4 5
 -8 0 11 4108.52 290.337 8
 8 0 -11 4251.02 242.72 6
 -8 0 -11 5052.92 314.185 3
 8 0 11 4189.43 234.563 7
 8 0 11 4735.47 276.169 1
 8 0 -12 925.733 112.475 4
 -8 0 12 840.663 182.379 2
 -8 0 -12 1046.29 135.484 5
 8 0 -12 853.414 113.745 6
 -8 0 12 842.621 140.896 8
 8 0 12 975.92 121.582 7
 -8 0 -12 1030.84 153.265 3
 8 0 12 1038.74 135.267 1
 8 0 -13 1978.12 159.61 4
 -8 0 13 2165.27 258.136 2
 8 0 13 1938.34 178.421 1
 8 0 -13 2213.55 176.869 6
 -8 0 13 2095.63 191.096 8
 8 0 13 2074.99 164.402 7
 -8 0 -13 2515.4 205.486 5
 -8 0 -13 2271.81 214.473 3
 8 -1 13 1178.69 141.597 1
 8 -1 13 1308.53 139.353 7
 -8 -1 -13 1201.82 147.042 5
 8 1 -13 1272.83 132.092 4
 -8 -1 -13 1264.21 165.575 3
 8 1 -13 1154.96 127.187 6
 -8 1 13 1142.82 196.847 2
 -8 1 13 878.083 153.752 8
 8 -1 12 1691.25 159.24 7
 8 -1 12 1726.87 167.323 1
 8 1 -12 1917.5 159.072 4
 -8 -1 -12 2406.61 228.468 3
 8 1 -12 1846.53 156.865 6
 -8 1 12 1676.05 242.72 2
 -8 -1 -12 1780.68 178.563 5
 -8 1 11 1794.88 175.411 8
 8 1 -11 2022.47 165.23 4
 8 1 -11 1706.96 152.802 6
 -8 -1 -11 1634.69 162.865 5
 8 -1 11 1748.18 176.459 1
 -8 -1 -11 2091.03 207.756 3
 -8 1 11 1721.92 245.178 2
 8 -1 11 2135.06 168.819 7
 8 -1 10 1651.82 161.241 1
 8 1 -10 2245.65 173.073 6
 8 -1 10 1911.08 160.018 7
 -8 -1 -10 2284.48 218.866 3
 8 -1 10 1897.61 168.031 4
 -8 1 10 1824.98 179.002 8
 -8 -1 -10 1737.9 162.88 5
 8 1 -10 2524.96 181.187 4
 8 -1 9 4750.78 266.034 4
 -8 -1 -9 5056.71 270.76 5
 -8 1 9 4871.39 400.391 2
 8 -1 9 4942.88 252.916 7
 8 -1 8 1590.56 158.606 4
 8 1 -8 1597.33 153.214 6
 8 -1 8 1428.09 106.965 1
 8 1 -8 1331.83 133.878 4
 -8 -1 -8 1637.16 208.828 3
 -8 1 8 1655.64 169.635 8
 -8 1 8 1508.59 225.697 2
 8 -1 8 1517.21 140.967 7
 -8 -1 -8 1660.15 159.47 5
 -8 -1 -7 9513.69 547.447 3
 -8 -1 -7 9665.75 413.777 2
 -8 1 7 9383.22 542.154 2
 8 -1 7 10130.8 267.312 1
 8 -1 7 9022.91 333.738 7
 -8 -1 -7 9300.52 367.935 5
 8 1 -7 10271.7 399.536 7
 8 1 -7 10264 371.708 6
 8 -1 6 4413.99 253.684 4
 -8 -1 -6 5073.38 300.396 2
 -8 -1 -6 5107.34 369.183 3
 -8 1 6 5516.3 306.334 8
 8 -1 6 4963.14 256.651 7
 -8 1 6 5627.72 272.68 5
 -8 -1 -6 5294.76 293.723 5
 8 1 -6 4675.18 269.067 7
 8 1 -6 5130.35 260.756 6
 -8 -1 -5 17288.2 492.513 5
 -8 -1 -5 16433.3 660.335 3
 -8 1 5 13019.2 624.361 2
 8 -1 5 14594.7 427.716 4
 -8 -1 -5 18093.8 588.184 2
 -8 1 5 16211.4 470.015 5
 8 -1 5 16399.9 445.436 7
 8 1 -5 15156.5 470.235 4
 -8 1 5 16048.6 512.379 8
 8 1 -5 14394.9 431.522 6
 8 1 -5 17976.6 515.758 7
 8 -1 4 14349.7 436.879 4
 -8 -1 -4 14895.3 509.606 2
 -8 1 4 15552.4 452.995 5
 -8 1 4 15006.7 508.946 8
 8 1 -4 15116.6 462.938 7
 -8 1 4 13593.7 608.084 2
 8 1 -4 9162.82 367.935 6
 -8 -1 -4 15045.1 448.176 5
 8 -1 4 20128.1 491.329 7
 8 1 -4 17040.2 475.094 4
 8 -1 3 30623 620.263 4
 -8 -1 -3 33918.9 792.197 2
 -8 1 3 37503.4 703.808 5
 8 1 -3 27812.1 602.274 4
 -8 -1 -3 37291.2 719.31 5
 8 1 -3 37065.9 725.297 7
 8 -1 3 37920.6 695.779 7
 -8 1 3 39093.4 812.133 8
 -8 1 3 34601.4 922.962 2
 8 -1 2 9961.5 368.865 4
 8 1 -2 9019.51 343.317 4
 8 1 -2 9792.09 371.612 6
 -8 1 2 9684.88 350.221 5
 -8 -1 -2 8221.09 338.737 5
 8 1 -2 10170.2 374.606 7
 8 -1 2 6662.73 288.504 7
 -8 1 2 9943.74 422.238 8
 -8 -1 -2 8435.04 399.374 2
 -8 1 2 8595.76 455.144 2
 8 -1 1 47936 769.512 4
 -8 1 1 50025.3 797.583 5
 8 1 -1 47704.5 812.337 7
 8 -1 1 49029.4 779.304 7
 -8 -1 -1 48256.2 952.742 8
 -8 1 1 50377.2 955.492 8
 -8 -1 -1 48425.7 990.054 2
 8 -1 0 6865.26 293.829 4
 -8 1 0 7120.74 297.171 5
 -8 -1 0 6997.45 296.531 5
 8 1 0 6389.7 283.38 6
 8 -1 0 6515.26 288.789 7
 8 1 0 7072.71 306.944 7
 -8 -1 0 7371.61 381.624 8
 -8 1 0 6759.44 345.723 8
 -8 -1 0 6487.46 365.962 2
 -8 1 0 7761.19 401.016 2
 8 -1 -1 34713.4 750.491 4
 -8 -1 1 51780.1 808.655 5
 -8 1 -1 43313.7 746.908 5
 8 -1 -1 50412.3 796.077 6
 8 -1 -1 42092.7 730.703 7
 8 1 1 43091.6 743.406 7
 -8 1 -1 46826.1 946.438 8
 -8 -1 1 41408.6 1019.48 8
 -8 -1 1 45381.6 1003.04 2
 -8 1 -1 49719.8 969.728 2
 8 1 2 6656.9 302.286 4
 8 -1 -2 7000.06 293.157 4
 -8 1 -2 7646.93 322.879 5
 -8 -1 2 6428.81 287.316 5
 -8 1 -2 7101.44 356.582 2
 -8 -1 2 6905.9 422.188 2
 8 1 2 7001.11 300.538 7
 -8 -1 2 7177.06 367.487 8
 8 -1 -2 7548.71 311.441 7
 8 -1 -3 36999.2 708.865 7
 -8 -1 3 33527.5 910.321 2
 -8 -1 3 40919.7 873.693 8
 -8 -1 3 37658.5 702.976 5
 -8 1 -3 34300 686.603 5
 8 -1 -3 31717.6 666.649 6
 8 1 3 39055.6 708.641 7
 8 1 4 11534.8 382.327 7
 8 -1 -4 11559.6 389.467 4
 8 -1 -4 13880.7 457.847 6
 -8 -1 4 12333 563.134 2
 8 1 4 11978.7 396.212 4
 -8 -1 4 9955.19 449.546 8
 8 -1 -4 10907.3 389.716 7
 -8 -1 5 18028.5 487.975 5
 -8 -1 5 16642.1 676.706 2
 8 1 5 17783.7 472.144 7
 -8 1 -5 17694.4 486.893 5
 -8 -1 5 17112.7 552.841 8
 -8 -1 6 3677.64 262.047 8
 -8 -1 6 3588.86 324.143 2
 8 -1 -6 4100.93 253.149 6
 8 -1 -6 3685.83 237.687 4
 -8 -1 6 3468.08 223.955 5
 8 1 6 3574.01 224.261 4
 8 -1 -7 10393.3 376.863 6
 -8 -1 7 9723.15 537.59 2
 -8 -1 7 11095.1 444.081 8
 -8 1 -7 10401.2 535.797 3
 -8 1 -7 10563.8 406.052 5
 8 1 7 10521.9 381.13 7
 8 -1 -8 1040.22 128.446 6
 -8 -1 8 1276 157.886 8
 8 1 8 990.721 118.657 7
 -8 -1 8 851.242 172.422 1
 8 1 8 1122.34 98.6092 1
 -8 -1 8 1110.31 200.945 2
 8 -1 -8 1125.03 127.86 3
 -8 1 -8 1053.46 180.93 3
 8 -1 -8 1323.81 136.04 4
 -8 1 -8 954.805 125.427 5
 -8 -1 9 5416.86 309.411 8
 8 -1 -9 4608.25 253.687 6
 -8 1 -9 4347.74 322.709 3
 8 -1 -9 4529.99 250.297 3
 -8 1 -9 4593.31 255.682 5
 8 -1 -10 2368.91 173.028 4
 -8 1 -10 2209.93 222.633 3
 -8 -1 10 1743.59 182.625 8
 -8 1 -10 1784.2 165.208 5
 8 -1 -10 1914.7 166.821 6
 8 1 10 1971 127.174 1
 8 1 10 1777.39 149.889 7
 -8 -1 10 2358.5 281.504 2
 8 -1 -11 2114.97 166.944 4
 -8 1 -11 2127.74 210.546 3
 -8 1 -11 1830.39 165.209 5
 8 1 11 1879.16 169.688 1
 8 1 11 1850.56 155.315 7
 8 -1 -11 1861.07 167.736 6
 -8 -1 11 1641.19 249.073 2
 -8 -1 11 1658.75 176.082 8
 8 1 12 2335.68 171.512 7
 -8 1 -12 1849.69 169.65 5
 -8 1 -12 1984.08 202.729 3
 8 -1 -12 1890.38 158.287 4
 8 -1 -12 1856.06 165.508 6
 -8 -1 12 1369.48 224.865 2
 -8 -1 12 1433.54 168.406 8
 -8 -1 13 1394.02 161.185 8
 8 1 13 1358.15 134.16 7
 8 1 13 1301.05 147.079 1
 -8 1 -13 1378.34 177.875 3
 8 -1 -13 1230.06 139.308 6
 8 -1 -13 1282.82 129.732 4
 -8 1 -13 1693.85 168.899 5
 -8 -1 13 1050.42 211.375 2
 8 -2 13 261.495 68.7498 7
 -8 2 12 4110.63 254.529 8
 8 2 -12 4026.76 229.782 4
 -8 -2 -12 4077.31 264.982 5
 8 -2 12 3457.38 232 1
 -8 -2 -12 4784.98 305.333 3
 8 2 -12 4493.67 235.841 6
 8 -2 12 4634.15 263.462 7
 -8 2 12 3761.52 345.6 2
 -8 2 11 1621.93 166.095 8
 8 2 -11 1433.72 137.748 6
 8 2 -11 1375.83 139.909 4
 -8 -2 -11 1468.93 165.406 5
 8 -2 11 1684.14 170.075 1
 -8 -2 -11 1423.49 178.369 3
 -8 2 11 1376.02 224.14 2
 8 -2 11 1167.56 137.672 4
 8 -2 11 962.288 139.625 7
 8 -2 10 8764.19 342.617 4
 8 -2 10 7940.82 364.155 1
 8 2 -10 8794.86 329.16 6
 -8 2 10 7773.73 508.755 2
 -8 -2 -10 9862.94 440.548 3
 8 -2 10 8817.68 343.554 7
 8 2 -10 8516.92 344.323 4
 -8 -2 -10 7777.3 348.171 5
 -8 2 10 9323.92 391.342 8
 8 2 -9 4014.2 233.377 4
 8 -2 9 4429.18 245.029 7
 8 -2 9 5206.55 274.764 4
 -8 2 9 3743.36 351.901 2
 -8 -2 -9 4905.42 307.953 2
 -8 -2 -9 4627.39 263.066 5
 -8 -2 -8 13740.4 494.804 2
 -8 2 8 11457.5 613.069 2
 8 2 -8 13473.5 408.032 6
 8 2 -8 10180.2 361.17 4
 -8 -2 -8 13662.7 542.786 3
 -8 2 8 15504.4 491.244 8
 8 -2 8 13129.8 433.821 4
 8 -2 8 14461.3 334.123 1
 -8 -2 -8 13375.2 445.461 5
 8 -2 8 12693 403.493 7
 8 -2 7 10215.4 369.7 4
 8 -2 7 9990.98 267.235 1
 8 2 -7 10660.1 367.637 6
 -8 2 7 9550.05 549.761 2
 -8 -2 -7 11466.8 512.015 3
 -8 2 7 9589.9 403.83 8
 8 2 -7 10993.8 369.617 4
 -8 -2 -7 10897.6 392.341 5
 -8 2 6 10805.6 383.055 5
 -8 2 6 10828.6 590.174 2
 -8 -2 -6 11703.5 452.778 2
 8 2 -6 10668.6 403.242 7
 8 -2 6 12284.6 306.945 1
 -8 -2 -6 9701.62 380.365 5
 -8 2 6 11694.6 459.986 8
 -8 -2 -6 11359.3 530.743 3
 8 -2 6 10403.5 357.797 7
 8 2 -6 11722.2 391.635 6
 -8 2 5 19255.7 513.742 5
 -8 -2 -5 21721.3 646.747 2
 -8 -2 -5 20412.6 557.433 5
 -8 2 5 21085.4 794 2
 8 -2 5 18758.8 483.036 4
 -8 -2 -5 21880.7 761.87 3
 8 2 -5 19515.8 510.839 4
 8 2 -5 19552.4 538.641 7
 8 -2 5 20175.6 514.79 7
 -8 2 5 23924.4 619.404 8
 -8 -2 -4 8754.44 348.687 5
 -8 -2 -4 9704.03 510.633 3
 -8 2 4 8697.71 481.96 2
 8 -2 4 9914.09 363.691 4
 -8 -2 -4 9261.26 412.546 2
 -8 2 4 9170.05 351.45 5
 8 2 -4 8886.9 357.721 4
 -8 2 4 10680.4 417.583 8
 8 2 -4 8930.98 371.642 7
 8 -2 4 8279.07 316.154 7
 -8 -2 -3 14842.2 443.803 5
 -8 2 3 12191.8 451.113 8
 8 -2 3 12003.5 388.852 4
 -8 -2 -3 10952 461.236 2
 8 -2 3 11026.6 360.81 7
 8 2 -3 11879.2 413.211 7
 8 2 -3 11531.6 391.769 4
 -8 2 3 12143.1 561.569 2
 -8 2 3 13445.1 419.266 5
 8 2 -3 13721.2 447.719 6
 8 -2 2 3793.5 229.354 4
 8 2 -2 3605.34 220.805 7
 -8 2 2 4297.13 240.579 5
 8 2 -2 3692.81 224.677 4
 -8 -2 -2 3978.58 278.732 2
 8 2 -2 3055.51 213.047 6
 8 -2 2 3699.34 216.756 7
 -8 2 2 4102.29 264.367 8
 8 -2 1 6134.68 274.925 7
 -8 2 1 8606.8 396.54 8
 8 -2 1 10763.3 371.966 4
 8 2 -1 6853.21 316.917 6
 -8 2 1 7541.22 414.93 2
 -8 -2 -1 7984.28 416.331 2
 8 2 -1 8513.57 351.738 7
 -8 2 1 10330.3 383.334 5
 -8 -2 -1 9335.57 357.401 5
 8 -2 0 756.955 113.662 6
 -8 -2 0 698.698 102.336 5
 8 2 0 553.575 92.2404 4
 -8 -2 0 597.156 120.068 2
 -8 2 0 608.112 121.669 2
 8 2 0 421.344 87.6161 6
 8 -2 0 562.958 86.9411 7
 8 2 0 504.585 94.9888 7
 -8 -2 0 755.898 133.987 8
 -8 2 0 581.676 111.148 8
 -8 -2 1 8514.97 324.616 5
 -8 2 -1 7463.65 310.071 5
 8 -2 -1 7059.3 300.804 4
 -8 -2 1 7178.47 402.345 2
 -8 2 -1 6475.19 353.513 2
 8 2 1 8978.51 338.545 6
 8 -2 -1 8101.05 321.564 6
 -8 -2 1 7428.86 408.247 8
 -8 2 -1 8528.59 414.037 8
 8 2 1 7232.09 291.094 4
 8 -2 -1 8758.97 326.309 7
 8 2 1 7363.61 312.498 7
 -8 -2 2 5187.02 256.329 5
 -8 2 -2 5029.13 265.028 5
 8 2 2 4966.12 259.09 7
 8 -2 -2 4844.21 255.831 6
 -8 2 -2 4932.7 301.8 8
 -8 -2 2 5281.3 315.697 8
 8 2 2 4523.24 243.37 4
 8 -2 -2 4644.04 257.05 4
 -8 -2 3 11331.6 380.249 5
 8 -2 -3 11322.7 397.263 4
 -8 -2 3 11092.7 540.463 2
 -8 -2 3 11438.8 471.934 8
 8 2 3 11180.1 375.382 4
 8 -2 -4 10677.8 398.194 6
 -8 2 -4 10437 379.323 5
 8 2 4 11577.2 384.271 7
 -8 -2 4 11327.1 538.511 2
 -8 -2 4 10920 462.66 8
 8 2 5 17116.2 478.116 7
 8 -2 -5 18160.1 535.423 6
 8 2 6 10567.9 366.032 7
 8 -2 -6 11102.6 398.948 4
 -8 2 -6 12280.5 413.555 5
 -8 -2 6 11807.8 574.775 2
 -8 -2 6 12040.6 470.701 8
 -8 -2 7 9965.3 438.974 8
 -8 2 -7 10982.1 538.86 3
 -8 -2 7 8466.36 514.768 2
 -8 2 -7 9706.86 370.018 5
 -8 -2 7 8445.75 471.466 1
 8 2 7 10224.5 357.187 7
 8 -2 -8 13509.7 420.488 3
 -8 -2 8 11417.2 516.389 1
 -8 -2 8 14865.6 524.457 8
 8 -2 -8 15813.2 495.832 6
 8 -2 -8 9316.56 361.777 4
 -8 2 -8 16131.5 488.983 5
 -8 2 -8 14519.9 609.895 3
 -8 -2 8 13085.9 627.294 2
 8 2 8 14137.8 433.134 7
 8 -2 -9 5198.42 298.775 6
 8 -2 -9 4507.68 248.201 3
 -8 -2 9 5003.42 311.576 8
 -8 -2 9 4568.49 329.401 1
 8 -2 -10 8018.77 331.616 3
 8 2 10 8374.05 319.612 7
 8 -2 -10 8162.93 356.828 6
 -8 2 -10 8579.11 439.353 3
 -8 -2 10 9391.5 559.726 2
 -8 2 -10 8419.6 342.738 5
 -8 -2 10 8800.91 406.374 8
 8 -2 -10 8914.69 341.293 4
 8 2 10 7996.45 235.579 1
 8 2 11 1494.04 137.77 7
 8 -2 -11 1730.42 169.748 6
 -8 2 -11 1310.87 169.906 3
 -8 -2 11 1715.16 253.468 2
 -8 2 -11 1325.3 138.257 5
 -8 -2 11 1565.02 180.394 8
 8 -2 -11 1395.53 141.116 4
 8 2 11 1277.27 132.175 1
 8 2 12 3436.56 207.062 7
 -8 -2 12 3665.43 269.609 8
 -8 2 -12 3270.03 220.072 5
 8 -2 -12 3870.83 250.203 6
 -8 2 -12 2750.26 244.415 3
 -8 -2 12 4151.44 363.845 2
 8 -2 -12 3996.06 225.231 4
 8 2 12 3355.94 249.996 1
 -8 2 -13 407.062 112.262 3
 8 -2 -13 402.111 93.2895 6
 -8 -2 13 392.613 102.293 8
 8 -3 12 1726.43 161.26 4
 -8 3 12 1828.31 254.825 2
 8 -3 12 1973.64 170.071 7
 -8 3 12 2011.13 175.783 8
 -8 -3 -12 2028.78 202.685 3
 8 3 -12 1876.9 158.633 6
 8 -3 12 1749.01 172.169 1
 8 3 -12 1922.99 158.043 4
 -8 -3 -12 1639.29 173.421 5
 8 -3 11 479.803 94.6269 4
 -8 -3 -11 557.623 112.481 5
 8 -3 11 548.68 97.9024 7
 -8 3 11 425.756 141.624 2
 8 3 -11 522.868 90.1982 4
 -8 -3 -11 406.404 98.3486 2
 8 -3 10 2812.56 196.583 4
 8 3 -10 3163.11 202.926 6
 -8 3 10 3676.98 238.96 8
 8 -3 10 2974.4 224.857 1
 -8 -3 -10 3723.08 276.59 3
 -8 -3 -10 3444.08 248.145 5
 8 3 -10 3084.68 203.689 4
 8 -3 10 2454.01 191.436 7
 -8 3 10 3048.7 324.839 2
 -8 -3 -10 3461.04 251.716 2
 -8 -3 -9 387.666 106.332 3
 8 -3 9 249.209 67.995 7
 -8 3 9 313.044 83.607 8
 -8 -3 -9 365.791 84.8928 5
 8 -3 9 199.607 83.6115 1
 8 3 -9 276.629 74.0239 6
 -8 -3 -9 173.59 70.6714 2
 -8 3 8 8651.09 533.358 2
 8 3 -8 9731.3 347.464 6
 -8 -3 -8 8894.18 394.834 2
 -8 -3 -8 9942.92 387.994 5
 8 3 -8 9726.1 356.977 4
 -8 -3 -8 10793.4 474.452 3
 8 -3 8 10079.8 378.63 4
 -8 3 8 10634.2 413.81 8
 8 -3 8 8137.55 337.487 7
 8 -3 7 989.557 123.317 4
 -8 -3 -7 877.861 138.217 2
 -8 3 7 884.423 188.586 2
 8 3 -7 1016.32 119.187 6
 8 3 -7 958.988 116.438 4
 8 -3 7 1204.48 103.875 1
 -8 -3 -7 926.948 124.105 5
 -8 3 7 1065.86 137.208 8
 -8 -3 -7 1151.04 177.102 3
 8 -3 6 19445.9 505.601 4
 -8 3 6 20069 780.762 2
 -8 3 6 17985 547.186 8
 8 3 -6 20206.1 503.405 6
 8 -3 6 19571 373.049 1
 8 -3 6 17705.7 480.07 7
 8 3 -6 19865 554.377 7
 -8 -3 -6 18257.6 513.326 5
 -8 3 6 19843.2 517.693 5
 8 -3 5 4332.72 177.262 1
 -8 3 5 3946.47 351.648 2
 8 3 -5 3428.98 225.479 7
 -8 -3 -5 4445.91 294.66 2
 -8 -3 -5 3886.65 241.098 5
 8 -3 5 3822.92 218.904 7
 8 3 -5 3668.91 225.686 4
 -8 -3 -4 28410.3 852.981 3
 8 3 -4 24997.3 681.892 7
 8 -3 4 23073 560.82 4
 8 3 -4 27514.8 588.131 6
 8 3 -4 27069.4 627.6 4
 -8 -3 -4 31842 691.109 5
 -8 3 4 21947.5 792.074 2
 -8 -3 -4 27853.5 712.042 2
 -8 3 4 28547.6 672.56 8
 -8 3 3 4425.05 244.697 5
 -8 -3 -3 4828.12 310.382 2
 -8 3 3 4397.51 273.474 8
 8 3 -3 3779.98 244.845 7
 -8 3 3 4085.7 330.564 2
 8 3 -3 3142.32 242.18 6
 8 3 -3 3817.8 237.583 4
 -8 -3 -3 4086.55 340.075 3
 8 3 -2 42961.4 786.09 7
 -8 3 2 44929.3 784.95 5
 8 3 -2 27801.2 664.542 6
 -8 -3 -2 20508.8 610.541 5
 -8 -3 -2 37334.4 846.089 2
 -8 3 2 36305.3 920.478 2
 -8 3 2 39335.6 806.602 8
 8 -3 2 37699.7 710.702 4
 -8 -3 -1 15734.1 573.828 2
 -8 3 1 15958.8 596.592 2
 -8 -3 -1 16253.8 469.512 5
 -8 3 1 17042 518.987 5
 8 -3 1 18635.9 506.119 4
 8 3 -1 20166.3 523.154 6
 -8 3 1 17435.3 587.781 8
 8 3 -1 17266.7 490.68 4
 -8 3 0 49429 802.863 5
 -8 -3 0 46939 993.193 2
 8 3 0 39466.7 753.432 7
 8 3 0 45883 751.162 4
 8 -3 0 55725.6 868.521 4
 -8 3 0 61361.4 1039.26 8
 8 3 0 47084.5 771.276 6
 -8 3 -1 18856.9 496.319 5
 -8 -3 1 16876.5 610.945 2
 8 3 1 17279.7 486.501 7
 8 -3 -1 15670.4 453.412 4
 -8 -3 1 16285.9 588.487 8
 -8 3 -1 17804 584.104 8
 8 -3 -1 15807.5 474.529 6
 -8 3 -2 41695.4 744.282 5
 -8 -3 2 38240.9 945.723 2
 8 3 2 41469.6 743.886 7
 8 -3 -2 31426.3 656.977 6
 -8 3 -2 45189.5 908.089 8
 -8 -3 2 33968 943.894 8
 8 -3 -2 41600.5 752.438 4
 8 -3 -3 5322.12 259.496 4
 8 3 3 4764.26 263.293 7
 -8 -3 3 4856.21 353.851 2
 8 -3 -3 4738.2 260.621 6
 -8 3 -3 4497.86 251.55 5
 -8 -3 3 5292.42 323.703 8
 8 -3 -4 27213.6 623.948 4
 8 3 4 22875.9 548.738 7
 8 -3 -4 26030.1 606.366 6
 -8 -3 4 23301 692.935 8
 -8 3 -4 24613.1 596.614 5
 -8 -3 4 27524.7 837.519 2
 -8 3 -5 4518.97 259.51 5
 -8 -3 5 4369.95 348.578 2
 -8 -3 6 19294.2 626.663 8
 8 -3 -6 17662.7 459.832 3
 -8 -3 6 17536.9 668.535 1
 8 -3 -6 18449.4 512.652 4
 8 3 6 18200.9 480.555 7
 -8 3 -6 19624.3 515.836 5
 -8 -3 6 18397.8 708.699 2
 -8 -3 7 1308.02 208.801 2
 8 3 7 1337.18 131.54 7
 -8 -3 7 1276.61 184.734 1
 -8 -3 7 1444.08 183.007 8
 8 -3 -7 1299.65 133.709 3
 -8 3 -7 1273.17 139.649 5
 8 -3 -7 913.707 125.731 4
 -8 -3 8 10047.8 546.661 2
 -8 -3 8 9318.13 465.325 1
 -8 3 -8 11281.2 413.15 5
 8 -3 -8 10170.8 390.551 4
 8 -3 -8 9474.41 350.955 3
 -8 3 -8 10074.1 516.422 3
 8 3 8 10257.7 381.359 7
 -8 -3 8 10155.1 451.039 8
 8 -3 -9 304.542 83.1443 6
 -8 -3 9 170.824 96.2843 1
 8 3 9 255.728 57.4079 1
 8 -3 -9 268.838 82.7521 4
 -8 3 -9 342.722 82.0419 5
 8 3 9 337.989 71.5961 7
 -8 -3 9 254.62 120.152 2
 8 3 10 3845.74 215.575 7
 -8 3 -10 3824.48 228.235 5
 -8 -3 10 3511.38 332.811 2
 -8 -3 10 4409.46 318.162 1
 8 -3 -10 5050.41 299.899 6
 -8 -3 10 3822.67 276.954 8
 8 -3 -10 3780.46 226.213 3
 -8 3 -10 4605.76 334.498 3
 8 3 10 3492.04 160.321 1
 8 -3 -11 351.324 95.4333 6
 8 -3 -11 408.683 85.7542 3
 -8 -3 11 415.326 104.88 8
 -8 3 -11 389.447 105.192 3
 -8 -3 11 298.33 103.73 1
 8 3 11 541.135 91.201 1
 -8 3 -12 1874.18 164.955 6
 -8 -3 12 1272.66 226.341 2
 8 3 12 1745.19 166.07 8
 8 3 12 2179.94 165.404 7
 -8 3 -12 2415.29 226.671 3
 -8 3 -12 1753.54 158.015 5
 8 3 12 1755.01 171.387 1
 8 -3 -12 1537.49 148.699 4
 -8 -3 12 1975.56 205.05 8
 -8 4 12 1807.69 256.924 2
 8 -4 12 1819.7 163.442 4
 8 4 -12 2350.35 175.943 6
 -8 -4 -12 2011.22 201.176 5
 -8 -4 -12 1876.03 188.875 2
 8 4 -12 2280.05 172.224 4
 -8 -4 -12 2198.43 203.374 3
 -8 4 12 2151.17 181.031 8
 8 -4 12 2309.08 196.871 1
 8 4 -11 2050.92 169.611 6
 8 -4 11 2332.73 200.744 1
 -8 -4 -11 2985.4 245.188 3
 -8 4 11 2645.74 202.718 8
 8 -4 10 4497.87 249.895 4
 8 -4 10 3816.29 249.073 1
 8 4 -10 4425.23 242.401 6
 8 4 -10 3789.95 230.093 4
 -8 -4 -10 4061.27 276.537 5
 -8 -4 -10 4111.21 271.838 2
 -8 4 10 3813.78 364.586 2
 -8 -4 -10 4625.49 311.272 3
 -8 4 10 4001.58 249.45 8
 8 -4 9 2391.14 186.856 4
 8 -4 9 1747.85 178.685 1
 8 4 -9 2563.54 183.112 6
 8 4 -9 2268.65 177.627 4
 -8 -4 -9 2381.69 212.728 2
 -8 4 9 2592.96 204.218 8
 -8 4 9 2056.96 273.176 2
 -8 -4 -9 2540.66 234.1 3
 8 4 -8 4515.23 249.848 4
 8 -4 8 4195.15 247.734 4
 -8 -4 -8 4405.13 282.621 2
 8 -4 8 3592.99 258.04 1
 -8 4 8 4326.29 387.124 2
 -8 -4 -8 4229.6 273.508 5
 -8 -4 -7 2540.59 240.378 3
 -8 4 7 2168.12 275.423 2
 -8 -4 -7 2321.81 211.451 2
 8 -4 7 2721.99 205.686 1
 8 4 -7 2508.51 205.353 7
 8 4 -7 2615.16 188.155 6
 8 -4 7 2260.36 181.218 4
 8 4 -7 3325.59 213.428 4
 -8 -4 -7 2984.51 222.643 5
 8 4 -6 10026 397.284 7
 -8 4 6 9814.22 368.762 5
 -8 -4 -6 9147.35 411.665 2
 -8 -4 -6 9649.61 464.075 3
 -8 -4 -6 8989.48 356.362 5
 -8 4 6 10248.5 401.854 8
 8 4 -6 9731.6 349.051 6
 8 -4 5 3607.16 220.838 4
 8 -4 5 3532.92 160.552 1
 8 4 -5 3548.25 220.46 4
 8 4 -5 2995.34 201.347 6
 -8 -4 -5 3247.24 224.062 5
 -8 4 5 3119.36 321.648 2
 -8 -4 -5 4485.49 299.525 2
 -8 4 5 4349.52 288.684 8
 -8 4 5 3186.06 216.744 5
 8 4 -4 7793.12 345.984 4
 -8 -4 -4 8726.03 466.782 3
 8 -4 4 8007.86 238.81 1
 8 4 -4 8931.97 343.018 6
 -8 4 4 9114.42 383.147 8
 -8 4 4 7511.27 471.253 2
 8 -4 3 6653.4 301.449 4
 -8 -4 -3 6020.89 345.566 2
 8 4 -3 8562.13 368.813 7
 -8 -4 -3 8074.69 461.918 3
 8 4 -3 7724.12 334.908 6
 -8 4 3 7725.81 356.99 8
 8 4 -3 5893.76 298.141 4
 -8 4 3 7258.55 315.251 5
 8 4 -2 15428.6 486.998 6
 8 4 -2 14573.4 466.185 7
 8 -4 2 14796 444.641 4
 -8 -4 -2 16707 593.298 2
 -8 4 2 16866.9 478.986 5
 -8 4 2 15031.7 503.13 8
 -8 -4 -2 17358.8 677.327 3
 8 -4 1 4041.72 251.627 4
 8 4 -1 4896.28 278.104 7
 -8 4 1 5224.15 266.176 5
 -8 -4 -1 4640.79 309.6 2
 8 4 -1 5617.06 286.043 6
 -8 4 1 4487.96 282.529 8
 8 -4 0 17791 481.532 4
 -8 -4 0 16918.6 610.794 2
 -8 4 0 16744.8 475.633 5
 8 4 0 17322.2 497.884 7
 -8 4 0 18766.3 581.749 8
 8 4 0 15530 454.198 6
 -8 4 -1 5559.09 315.551 8
 -8 -4 1 5565.38 358.821 2
 8 -4 -1 4445.34 258.849 4
 -8 4 -1 4160.71 246.048 5
 8 4 1 5626.84 268.336 6
 8 4 1 5081.54 269.651 7
 -8 -4 2 16566.1 592.063 8
 -8 4 -2 15877 461.435 5
 8 -4 -2 16235 495.998 6
 8 4 2 15416.6 457.631 7
 -8 -4 3 5344.94 471.331 8
 8 -4 -3 6606.24 300.258 4
 -8 4 -3 7813.22 338.873 5
 -8 -4 3 6273.28 399.154 2
 8 4 3 7741.77 338.427 7
 8 -4 -3 5548.74 286.265 6
 -8 -4 4 9763.91 516.97 2
 -8 4 -4 10393.9 380.244 5
 8 -4 -4 8261.47 343.615 4
 8 -4 -4 8862.12 365.015 6
 -8 4 -5 3022.61 217.139 5
 8 4 5 2880.16 199.724 7
 8 -4 -5 2677.31 184.836 3
 -8 -4 5 2748.56 245.172 8
 -8 -4 5 3040.39 293.817 2
 8 -4 -6 5090.06 326.297 4
 8 -4 -6 14116.5 474.232 6
 -8 -4 6 8938.38 500.872 2
 8 4 6 9577.48 360.945 7
 -8 -4 6 7065.3 427.947 1
 -8 4 -6 9566.38 368.035 5
 -8 -4 6 10089 465.486 8
 -8 4 -7 2793.51 202.729 5
 -8 -4 7 2974.09 264.159 8
 8 -4 -7 2459.19 189.968 4
 8 -4 -7 2649.24 185.157 3
 -8 -4 7 3267.45 278.69 1
 -8 -4 7 2583.19 277.041 2
 8 4 7 2681.26 184.962 7
 8 -4 -8 3542.93 217.052 3
 -8 -4 8 3706.4 290.616 8
 -8 4 -8 3483.92 324.478 3
 -8 -4 8 4557.71 328.003 1
 8 -4 -8 4113.22 262.495 6
 8 -4 -9 2793.42 210.126 4
 -8 -4 9 2678.24 253.949 8
 -8 4 -9 3193.11 300.561 3
 -8 -4 9 1890.46 215.077 1
 -8 4 -9 2360.72 197.923 5
 -8 -4 9 2336.69 269.124 2
 8 -4 -9 2600.02 187.166 3
 8 4 9 2496.48 179.515 7
 8 4 9 2344.52 139.175 1
 8 4 10 3744.97 210.985 7
 8 4 10 3412.99 159.756 1
 -8 4 -10 4183.82 323.622 3
 -8 -4 10 3632.77 332.702 2
 -8 4 -10 3421.57 221.879 5
 8 -4 -10 3559.14 253.733 6
 -8 -4 10 3125.66 274.167 1
 8 -4 -10 3506.65 215.64 3
 8 -4 -11 3598.41 233.18 4
 -8 -4 11 3131.67 309.445 2
 8 4 11 2700.76 183.046 7
 -8 4 -11 3078.26 212.906 5
 -8 -4 11 3544.74 315.544 8
 8 -4 -12 1637.09 162.369 4
 -8 -4 12 1445.4 190.527 1
 -8 4 -12 1422.44 147.94 6
 8 4 12 1514.16 136.228 7
 8 4 12 1486.53 162.413 1
 -8 4 -12 1595.92 155.105 5
 8 4 12 1586.55 154.903 8
 8 -4 -12 1690.46 158.993 3
 -8 5 12 654.413 167.74 2
 -8 -5 -12 574.486 110.673 2
 8 5 -12 465.174 89.1497 4
 -8 5 11 2775.57 206.5 8
 -8 -5 -11 2781.93 228.943 3
 8 -5 11 2368.61 205.079 1
 8 5 -11 1818.54 167.071 6
 -8 5 11 2854.56 321.826 2
 8 -5 11 2949.97 197.793 4
 -8 -5 -11 2454.27 210.66 2
 8 5 -11 2174.03 176.836 4
 -8 5 10 1512.25 155.602 8
 8 5 -10 1404.96 142.119 4
 8 5 -10 1367.33 144.156 6
 8 -5 10 1144.89 148.426 1
 -8 -5 -10 1464.04 181.903 3
 8 -5 10 1345.52 140.862 4
 -8 5 10 1485.89 245.702 2
 -8 -5 -10 1453.4 168.703 2
 8 -5 9 3212.28 214.627 4
 8 -5 9 3575.01 247.502 1
 8 5 -9 3319.57 220.077 6
 -8 -5 -9 3099.29 240.858 2
 -8 5 9 3119.47 337.011 2
 8 5 -9 3075.11 208.312 4
 8 5 -8 4086.41 248.059 4
 8 5 -8 4000 231.302 6
 -8 5 8 4211.58 259.368 8
 -8 -5 -8 4238.45 277.007 2
 -8 -5 -8 4450.21 310.972 3
 -8 5 8 3715.54 362.988 2
 -8 -5 -7 4268.65 300.605 2
 -8 -5 -7 5645.36 352.849 3
 -8 5 7 3912.49 376.386 2
 8 5 -7 4967.8 283.439 7
 8 5 -7 3544.44 222.634 4
 8 5 -7 3980.48 229.383 6
 8 -5 7 5358.66 273.389 4
 -8 5 7 5286.22 289.074 8
 8 -5 7 4497.46 281.603 1
 -8 5 6 13436.5 427.173 5
 -8 -5 -6 13995.3 503.851 2
 -8 -5 -6 15219.4 571.278 3
 8 5 -6 14562 432.908 6
 8 -5 6 13292.4 468.293 1
 8 5 -6 15884.7 504.841 7
 -8 5 6 16551.7 514.251 8
 -8 5 5 5719.72 284.511 5
 -8 5 5 6861.87 336.804 8
 8 -5 5 6230.08 288.839 4
 8 5 -5 6285.86 314.216 7
 8 5 -5 6521.4 289.921 6
 -8 -5 -5 5961.3 370.391 3
 8 -5 4 31130.6 499.638 1
 8 -5 4 38660 711.791 4
 -8 -5 -4 32568.4 888.012 3
 8 5 -4 32675.6 734.81 7
 -8 -5 -4 31426.7 781.97 2
 -8 5 4 36344.8 727.992 5
 -8 5 3 5081.33 268.03 5
 8 5 -3 4787.79 257.719 6
 8 -5 3 4687.19 185.73 1
 -8 -5 -3 4419.94 333.129 3
 -8 5 3 5243.51 298.9 8
 8 -5 3 4980.96 280.154 4
 8 5 -3 5472.1 292.142 7
 -8 -5 -3 4889.36 314.377 2
 8 -5 2 39221.1 528.466 1
 8 5 -2 38324.4 839.627 6
 -8 5 1 3906.52 265.608 8
 -8 -5 -1 3658.53 320.311 3
 8 5 0 42576.1 812.214 6
 -8 5 0 45833.8 918.132 8
 8 5 1 3204.77 210.021 6
 -8 5 -3 3982.39 240.064 5
 -8 -5 3 4054.36 324.636 2
 8 -5 -3 3069.56 210.542 4
 8 5 3 3575.04 225.813 7
 -8 -5 4 27645 836.408 2
 -8 5 -4 29568.6 642.839 5
 8 5 4 28422.8 633.147 7
 8 -5 -4 29037.7 636.36 4
 8 -5 -5 5406.56 274.348 4
 8 -5 -5 4013.15 252.372 6
 -8 -5 5 5247.91 383.789 2
 -8 5 -5 6033.51 293.888 5
 8 -5 -5 3283.55 234.677 3
 -8 -5 5 4598.76 323.841 8
 8 5 5 5106.63 263.587 7
 8 5 6 15257.3 455.971 7
 8 -5 -6 14145.5 464.52 4
 8 -5 -6 12956.2 451.968 6
 -8 -5 6 13605.3 627.095 2
 8 -5 -6 13673 413.427 3
 -8 -5 6 13569.7 566.321 1
 -8 -5 6 13030.6 554.819 8
 -8 5 -6 14495.8 459.993 5
 8 -5 -7 4889.9 251.342 3
 -8 -5 7 4858.95 329.092 8
 8 -5 -7 5575.38 295.218 4
 8 -5 -7 4145.66 261.107 6
 -8 -5 7 4313.45 358.222 2
 8 5 7 5134.14 259.546 7
 -8 5 -7 4599.43 261.347 5
 -8 -5 8 3595.14 322.147 2
 8 5 8 3918.81 224.846 7
 -8 -5 8 3544.3 293.604 1
 -8 5 -8 4199.92 255.218 5
 8 -5 -8 3675.89 218.622 3
 8 -5 -8 4844.61 269.47 4
 -8 -5 8 4703.23 330.609 8
 8 -5 -8 3540.14 246.086 6
 8 5 9 3249.05 209.151 7
 -8 5 -9 3496.74 313.114 3
 -8 -5 9 4480.03 315.085 1
 -8 -5 9 3802.17 336.052 2
 -8 5 -9 3298.38 226.745 5
 8 -5 -9 1520.23 190.6 6
 -8 -5 9 2300.23 249.707 8
 8 -5 -9 3549.73 219.648 3
 8 -5 -10 1570.62 163.054 4
 -8 -5 10 1930.16 217.282 8
 -8 5 -10 1605.16 209.711 3
 -8 5 -10 1462.22 150.119 5
 8 5 10 1511.8 108.2 1
 8 5 10 1629.31 142.214 7
 8 -5 -10 1711.56 157.75 3
 -8 -5 10 1746.71 234.315 2
 -8 -5 10 1790.36 206.516 1
 -8 -5 11 2497.05 243.127 1
 -8 5 -11 2617.37 194.46 5
 8 -5 -11 2380.01 197.757 4
 -8 -5 11 2761.26 289.577 2
 8 5 11 2659.88 149.924 1
 8 -5 -11 2892.41 198.944 3
 8 5 11 2734.73 182.172 7
 8 5 12 803.594 115.78 8
 8 -5 -12 961.37 117.929 3
 8 5 12 879.258 124.287 1
 -8 -5 12 1050.29 162.419 1
 8 -6 11 1209.49 147.565 1
 8 -6 11 1543.42 151.412 4
 -8 -6 -11 1393.64 160.226 2
 -8 -6 -11 1493.58 175.289 3
 8 -6 10 -3.21727 48.5148 1
 8 6 -10 53.7299 53.271 6
 -8 -6 -10 9.88173 52.1934 2
 -8 -6 -10 47.5852 67.6022 3
 -8 6 10 80.1488 55.725 8
 8 6 -9 2962.69 203.609 6
 -8 6 9 3282.41 222.479 8
 -8 -6 -9 2829.01 227.941 2
 8 -6 9 3087.43 212.21 4
 -8 -6 -8 939.847 156.49 3
 8 -6 8 815.951 127.535 1
 8 6 -8 1288.85 136.138 6
 -8 6 8 969.581 129.24 8
 8 6 -8 933.87 132.633 7
 8 -6 8 658.249 110.313 4
 -8 -6 -8 868.639 131.369 2
 8 -6 7 2343.95 188.005 4
 -8 -6 -7 2223.44 228.619 3
 8 6 -7 2068.77 185.956 7
 -8 6 7 2217.5 181.861 5
 8 -6 6 1851.48 172.38 4
 -8 -6 -6 2096.19 200.815 2
 8 -6 6 2262.81 205.913 1
 -8 6 6 2586.24 210.477 8
 8 6 -6 1763.23 155.759 6
 -8 -6 -6 1927.69 211.054 3
 -8 6 6 2388.11 187.639 5
 8 6 -6 2262.73 191.076 7
 -8 6 5 576.485 105.15 8
 8 -6 5 500.632 93.9993 4
 8 6 -5 510.01 91.5554 6
 8 -6 5 339.174 94.8111 1
 -8 -6 -5 644.156 124.887 2
 -8 -6 -5 541.044 122.055 3
 -8 6 5 608.448 101.861 5
 8 6 -5 491.353 100.327 7
 -8 6 4 7862.72 370.326 8
 8 -6 4 5630.85 286.231 4
 8 6 -4 6168.99 298.468 6
 -8 6 4 7619.19 334.573 5
 8 -6 4 6049.15 340.958 1
 8 6 -4 6816 333.04 7
 -8 -6 -4 7897.99 396.333 2
 -8 -6 -3 375.391 104.509 3
 -8 6 3 453.987 100.152 8
 8 -6 3 353.953 86.8059 4
 -8 6 3 479.147 92.3557 5
 8 6 -3 467.475 98.1951 7
 -8 -6 -3 453.637 107.911 2
 8 6 -2 14908.2 471.293 7
 8 -6 2 13856.7 435.807 4
 -8 -6 -2 14881.1 560.836 2
 -8 6 2 15254.2 523.347 8
 -8 6 2 14838.7 514.246 5
 -8 6 1 1255.85 142.499 5
 8 6 -1 1720.87 168.192 6
 8 6 -1 1541.7 162.131 7
 8 -6 1 1527.31 154.361 4
 -8 -6 -1 1650.95 197.699 2
 -8 6 0 27936.5 622.016 5
 8 6 0 27976.8 646.426 7
 8 6 1 1872.04 172.19 7
 -8 -6 1 1677.44 216.729 2
 -8 6 -1 1647.35 159.525 5
 8 -6 -1 1766.2 164.704 4
 8 6 2 14202.7 447.686 7
 -8 -6 2 14276.2 578.093 2
 -8 6 -2 14605.5 441.33 5
 8 -6 -3 1010.74 129.119 4
 8 6 3 522.275 98.8115 7
 -8 -6 3 792.335 155.382 2
 -8 6 -3 746.511 111.807 5
 8 -6 -4 6457.7 304.694 4
 -8 6 -4 6778.89 313.506 5
 -8 -6 4 6209.74 405.221 2
 8 6 5 395.153 83.5684 7
 -8 -6 5 339.522 115.943 2
 8 -6 -5 416.462 99.1446 6
 8 -6 -5 416.359 88.1748 4
 8 -6 -5 418.146 84.3353 3
 -8 6 -5 338.969 85.0101 5
 -8 -6 5 324.865 116.391 8
 -8 -6 6 2273.96 248.78 1
 8 6 6 2071.08 175.399 7
 -8 -6 6 1789.65 247.099 8
 -8 -6 6 2424.4 267.636 2
 -8 6 -6 2203.18 185.996 5
 8 -6 -6 2643.37 202.615 4
 8 -6 -6 2557.46 182.522 3
 -8 -6 7 1797.83 240.287 2
 -8 -6 7 2038.9 242.601 8
 8 -6 -7 1129.15 145.707 6
 -8 6 -7 1510.67 155.292 5
 8 6 7 1419.99 140.145 7
 -8 -6 7 1556.29 207.22 1
 8 -6 -7 1484.33 142.628 3
 8 6 8 852.834 109.868 7
 8 -6 -8 833.958 112.004 3
 -8 -6 8 844.369 159.352 1
 -8 -6 8 779.126 167.768 2
 -8 6 -8 1125.11 135.843 5
 8 -6 -8 714.515 114.536 4
 -8 6 -8 849.945 174.7 3
 8 6 9 3054.52 208.037 7
 8 -6 -9 2741.81 218.785 4
 -8 6 -9 2748.89 208.443 5
 -8 -6 9 2944.51 298.141 2
 -8 -6 9 2287.13 231.88 1
 8 -6 -9 2864 196.078 3
 -8 6 -9 3068.13 298.602 3
 -8 -6 10 25.0855 65.6204 1
 -8 -6 10 39.9418 78.5463 2
 8 -6 -10 2.44946 47.386 3
 8 6 10 32.8485 33.4879 7
 8 -6 -10 15.5963 50.8055 4
 -8 6 -10 57.622 48.1494 5
 -8 -6 11 1558.79 192.875 1
 8 -6 -11 1238.45 133.826 3
 8 6 11 1250.5 124.684 7
 -8 -6 11 1355.05 216.519 2
 -8 6 -11 1401.77 143.686 5
 -8 -7 -10 1043.12 153.294 3
 8 -7 10 797.779 126.7 1
 8 -7 10 993.298 118.915 4
 8 7 -10 882.813 123.984 6
 -8 -7 -10 928.147 139.399 2
 -8 7 10 961.434 125.062 8
 8 7 -9 5953.35 314.001 7
 8 -7 9 6689.45 304.736 4
 -8 7 8 2077.75 184.697 8
 8 -7 8 2031.51 172.69 4
 8 -7 8 1537.08 177.784 1
 8 7 -8 2173.17 176.115 6
 8 7 -8 1975.34 182.408 7
 -8 -7 -8 2013.44 190.815 2
 -8 -7 -8 2134.76 210.81 3
 -8 7 8 1887.85 170.44 5
 -8 7 7 9747.84 372.989 5
 -8 -7 -7 8133.85 382.96 2
 8 7 -7 7853.85 328.037 6
 8 7 -7 9572.8 412.827 7
 -8 7 7 7377.66 346.332 8
 8 -7 7 9113.64 360.663 4
 -8 -7 -7 7737.49 417.486 3
 -8 -7 -6 6437.95 345.773 2
 8 7 -6 5539.19 275.291 6
 -8 7 6 6469.03 331.545 8
 -8 -7 -6 6391.29 383.736 3
 8 7 -6 5907.09 315.132 7
 8 -7 6 6021.78 291.581 4
 -8 7 5 19508.1 572.193 8
 8 7 -5 19061.1 510.868 6
 -8 7 4 5729.93 289.543 5
 -8 -7 -4 6403.85 367.158 2
 -8 7 4 6013.34 337.475 8
 8 7 -4 5816.4 308.986 7
 8 7 -4 5099.58 274.112 6
 8 -7 4 5523.09 278.448 4
 8 7 -3 26852.3 663.802 7
 -8 7 3 24387.8 594.076 5
 -8 -7 -3 24834.2 702.527 2
 8 7 -3 25999.6 630.516 6
 8 -7 3 23209.1 569.191 4
 8 -7 2 1869.77 177.385 4
 8 7 -2 1959.01 178.743 7
 -8 -7 -2 1900.36 207.889 2
 8 -7 1 27262.6 618.897 4
 -8 7 1 26143.9 623.224 5
 -8 -7 -1 25907.5 746.467 2
 -8 -7 0 2814.71 254.683 2
 8 -7 0 2638.73 200.121 4
 -8 7 0 2805.02 206.934 5
 8 7 0 2850.97 216 7
 -8 7 -1 26838 618.001 5
 8 7 1 27071 648.771 7
 -8 -7 2 2372.9 252.761 2
 8 -7 -2 2424.24 194.329 4
 -8 7 -2 1958.22 175.809 5
 8 7 2 2326.65 185.166 7
 8 7 3 21912.6 573.898 7
 -8 -7 3 22744.1 738.486 2
 8 7 4 5505.13 291.841 7
 -8 -7 4 5545.91 379.767 2
 -8 7 -4 5732.98 293.108 5
 8 -7 -5 18721 523.499 4
 -8 -7 5 16770.8 666.953 2
 -8 7 -6 5789.77 303.085 5
 8 -7 -6 5794.34 273.029 3
 8 7 6 5678.69 287.537 7
 -8 -7 6 5161.58 388.965 1
 -8 -7 7 8064.79 438.879 1
 -8 7 -7 8791.79 377.508 5
 8 -7 -7 8571.72 328.798 3
 8 -7 -7 7565.31 340.993 4
 8 7 7 8637.94 338.87 7
 -8 -7 8 1805.52 241.067 2
 -8 -7 8 2043.7 224.724 1
 8 -7 -8 2116.24 166.019 3
 8 7 8 1817.18 154.332 7
 8 -7 -8 2053.06 210.337 4
 -8 7 -8 2377.64 190.68 5
 -8 -7 9 5079.97 362.826 1
 8 -7 -9 6111.47 280.678 3
 8 7 10 829.823 105.464 7
 -8 -7 10 731.719 180.889 2
 -8 7 -10 801.346 112.593 5
 8 -7 -10 689.505 115.845 4
 8 -7 -10 888.095 114.056 3
 -8 -8 -10 492.541 111.95 3
 -8 8 9 332.378 80.6589 5
 8 8 -9 322.884 82.3312 7
 -8 -8 -9 310.284 90.9806 2
 -8 8 9 372.318 86.6575 8
 8 -8 9 251.342 74.6085 4
 -8 -8 -9 286.566 94.291 3
 8 8 -9 344.276 85.9414 6
 8 -8 8 141.161 61.7316 4
 8 8 -8 132.158 63.5308 7
 -8 -8 -8 97.1268 56.4657 2
 -8 8 8 126.02 62.2532 5
 -8 -8 -8 124.477 83.8145 3
 8 8 -7 143.427 60.3332 6
 8 8 -7 111.817 63.6223 7
 8 -8 7 132.545 66.1122 4
 -8 -8 -7 108.545 61.914 2
 -8 8 7 89.6059 55.2063 5
 -8 8 7 114.749 63.0225 8
 8 8 -6 962.325 137.143 7
 8 8 -6 760.391 111.412 6
 -8 8 6 1065.26 130.658 5
 -8 -8 -6 947.539 143.006 2
 -8 8 6 827.438 130.959 8
 8 -8 6 792.782 115.568 4
 8 -8 5 529.569 105.253 4
 -8 -8 -5 504.569 110.723 2
 -8 8 5 580.246 105.585 5
 8 8 -5 427.113 98.2862 7
 8 -8 4 2997.59 211.273 4
 -8 -8 -4 3682.36 276.838 2
 -8 8 4 3476.26 229.531 5
 8 8 -4 3380.95 244.235 7
 -8 8 2 5123.26 277.903 5
 8 8 -2 5687.26 306.444 7
 8 -8 2 5911.64 299.798 4
 -8 -8 -2 5420.42 338.105 2
 -8 8 1 3143.14 223.6 5
 -8 -8 -1 2556.18 241.904 2
 8 8 -1 2631.72 215.262 7
 8 -8 1 3158.73 232.578 4
 -8 -8 0 6561.79 384.034 2
 -8 8 0 6992.8 319.07 5
 8 8 0 6338.84 323.521 7
 -8 8 -1 2217.98 185.763 5
 8 8 1 2867.25 216.344 7
 -8 -8 1 2696.93 252.718 2
 -8 -8 2 4744.8 341.987 2
 -8 8 -2 5509.23 287.315 5
 8 8 2 5623.06 292.855 7
 -8 8 -3 2657.03 208.468 5
 8 -8 -3 3087.11 222.447 4
 -8 -8 3 2663.4 277.057 2
 8 8 4 2198.93 195.832 7
 -8 8 -5 880.602 126.434 5
 8 -8 -5 965.457 138.48 4
 8 8 5 978.53 124.985 7
 -8 -8 5 707.03 147.889 2
 8 -8 -5 739.725 108.547 3
 8 -8 -6 431.931 95.7008 3
 -8 8 -6 531.331 99.4627 5
 8 8 6 578.731 98.9912 7
 8 -8 -6 522.491 99.9871 4
 -8 -8 6 520.706 136.348 2
 -8 -8 6 709.733 151.45 1
 8 -8 -7 364.559 80.5754 3
 8 -8 -7 329.585 83.4702 4
 -8 8 -7 172.737 65.4707 5
 -8 -8 7 276.989 110.529 1
 8 8 7 171.255 61.4996 7
 -8 -8 7 277.368 109.137 2
 8 -8 -8 119.342 60.4414 3
 -8 -8 8 89.0012 77.4859 1
 8 8 8 115.359 54.3839 7
 8 -8 -9 344.882 90.1701 4
 8 8 9 226.393 65.8286 7
 -8 -8 9 198.17 97.816 2
 -8 -8 9 250.989 102.747 1
 -8 8 -9 203.026 71.8887 5
 8 -8 -9 274.857 72.7154 3
 8 -8 -10 361.523 90.7572 4
 -8 -8 10 419.47 130.572 2
 8 9 -9 1717.43 167.74 6
 -8 9 9 1555.25 166.888 8
 8 9 -8 4394.28 274.159 7
 -8 -9 -8 3341.6 251.976 2
 8 -9 8 3229.59 218.221 4
 -8 9 8 4349.64 274.835 5
 -8 -9 -7 3220.54 244.964 2
 8 9 -7 4239.17 271.114 7
 8 -9 7 3808.14 241.205 4
 -8 9 7 3690.02 237.69 5
 -8 -9 -5 5231.24 318.656 2
 8 9 -5 6116.22 328.452 7
 8 -9 5 5957.14 293.411 4
 -8 9 5 5501.55 294.398 5
 -8 -9 -4 7340.58 380.848 2
 8 9 -4 8262.53 380.446 7
 8 -9 4 7257.77 321.417 4
 -8 9 4 7356.78 338.348 5
 8 9 -3 8255.17 366.233 7
 8 -9 3 7571.62 331.269 4
 -8 9 2 9677.55 396.169 5
 8 9 -2 9946.59 420.631 7
 -8 -9 -2 8605.92 435.252 2
 -8 -9 -1 6484.47 375.974 2
 8 9 -1 6687.58 342.206 7
 8 -9 1 6997.24 334.039 4
 8 -9 0 6494.9 317.905 4
 -8 -9 0 6571.82 390.09 2
 8 9 0 6656.82 334.652 7
 8 -9 -1 5476.65 294.796 4
 -8 9 -1 6325.65 310.566 5
 8 9 1 5539.52 310.471 7
 8 -9 -2 10015.6 396.143 4
 -8 9 -2 10511.2 398.77 5
 8 9 2 10394.9 408.426 7
 -8 -9 2 9886.01 483.342 2
 8 -9 -3 5807.01 326.46 4
 -8 9 -3 7840.24 348.939 5
 8 9 3 7750.52 344.234 7
 -8 -9 3 5916.02 385.328 2
 8 -9 -4 10835.6 426.352 4
 -8 9 -4 10155.8 407.411 5
 8 9 4 7453.76 333.872 7
 -8 -9 4 7330.81 451.903 2
 8 -9 -5 5774.49 305.332 4
 8 9 5 5522.59 287.632 7
 -8 9 -5 5377.83 294.159 5
 8 -9 -6 5999.32 277.935 3
 8 9 6 5734.45 296.442 7
 -8 9 -6 6105.37 307.762 5
 -8 -9 6 5309.81 385.166 2
 -8 -9 7 2607.76 271.96 2
 -8 -9 7 2675.65 279.578 1
 8 9 7 3439.98 215.967 7
 -8 9 -7 3390.66 228.847 5
 8 -9 -7 3628.76 217.735 3
 -8 -9 8 4435.41 338.599 1
 8 -9 -8 4307.28 235.042 3
 -8 9 -8 4086.83 261.406 5
 8 9 8 3970.55 230.352 7
 -8 -9 8 3197.61 306.532 2
 8 -9 -8 4133.49 271.58 4
 -8 -9 9 1095.54 198.897 2
 8 -10 7 147.373 64.1055 4
 -8 10 7 98.1433 56.8016 5
 8 10 -7 107.978 61.8846 7
 -8 -10 -7 115.59 64.5085 2
 -8 10 6 91.2185 57.6409 5
 -8 -10 -6 75.3993 61.5333 2
 8 10 -6 82.8368 58.6738 7
 8 10 -5 529.728 110.71 7
 -8 -10 -5 711.752 127.25 2
 -8 10 5 908.299 131.185 5
 8 -10 5 544.131 102.483 4
 8 -10 4 50.4594 53.6641 4
 -8 -10 -3 1369.99 183.439 2
 8 -10 3 1212.58 141.117 4
 8 10 -3 1465.45 170.642 7
 -8 10 3 1524.91 159.108 5
 -8 -10 -2 1065.85 167.709 2
 8 -10 2 818.766 119.657 4
 8 10 -2 1034.38 148.327 7
 -8 10 2 1276.93 150.954 5
 -8 -10 -1 2832.88 254.981 2
 -8 10 1 2907.84 215.972 5
 8 10 -1 3413.8 246.416 7
 8 -10 1 3121.34 218.11 4
 -8 -10 0 760.332 140.433 2
 -8 10 0 835.535 122.015 5
 8 10 0 940.401 131.063 7
 8 -10 0 760.71 118.793 4
 -8 -10 1 3267.23 285.353 2
 -8 10 -1 2944.79 213.277 5
 8 10 1 3167.28 224.289 7
 8 -10 -1 2506.92 221.927 4
 -8 -10 2 915.324 163.083 2
 -8 10 -2 904.976 129.677 5
 8 10 2 932.229 129.52 7
 8 -10 -2 1006.66 133.522 4
 8 -10 -3 1416.5 162.746 4
 8 10 3 1572.85 162.403 7
 -8 10 -3 1303.82 166.398 5
 -8 -10 3 1737.85 216.187 2
 8 -10 -4 6.8892 46.8206 4
 -8 -10 4 19.9078 65.8915 2
 -8 10 -4 37.216 51.849 5
 8 10 4 53.7965 49.9659 7
 8 10 5 714.07 109.699 7
 8 10 6 212.768 63.5133 7
 8 -10 -6 267.573 83.9931 4
 8 -10 -6 187.103 64.932 3
 -8 -10 6 223.628 103.967 2
 -8 10 -6 206.905 71.4965 5
 8 10 7 157.945 58.5576 7
 8 -10 -7 110.811 58.6204 3
 -8 10 -7 169.27 69.3141 5
 -8 -10 7 157.016 92.149 2
 8 11 -5 1914.02 183.22 7
 8 -11 5 1849.41 174.895 4
 -8 11 5 2075.01 193.027 5
 -8 -11 -4 5017.49 321.1 2
 -8 11 4 5742.14 304.89 5
 8 11 -4 5584.33 318.099 7
 8 -11 4 6143.54 308.651 4
 -8 -11 -3 1385.01 173.55 2
 -8 11 3 1420.49 161.696 5
 8 11 -3 1686.89 180.996 7
 8 -11 3 1551.24 168.803 4
 -8 -11 -2 4266.23 320.671 2
 -8 11 2 5494.93 302.782 5
 8 -11 2 4429.93 267.721 4
 8 11 -2 5811.82 320.178 7
 -8 -11 -1 830.533 157.074 2
 8 11 -1 928.961 133.325 7
 -8 11 1 1018.45 138.326 5
 -8 -11 0 5962.27 377.808 2
 8 11 0 6762.09 343.266 7
 -8 -11 1 880.988 149.662 2
 8 11 1 945.88 129.884 7
 8 11 2 5269.79 297.129 7
 -8 11 -2 5875.61 318.045 5
 8 11 3 1624.07 169.505 7
 -8 -11 3 1184.15 187.907 2
 8 -11 -3 1429.46 164.347 4
 -8 11 -3 1755.01 176.767 5
 -8 11 -4 7064.05 358.948 5
 8 11 4 6097.15 306.903 7
 -8 -11 4 6204.53 421.256 2
 8 11 5 1556.9 165.967 7
 -8 -11 5 1601.23 215.41 2
 8 -12 2 83.9508 60.4553 4
 -8 -12 -2 65.9292 65.2924 2
 8 12 -2 121.044 69.307 7
 -8 12 2 100.197 59.8022 5
 -8 -12 -1 953.22 161.25 2
 -8 12 1 1044.71 139.314 5
 8 12 -1 907.046 135.751 7
 8 -12 1 891.059 129.039 4
 8 -12 0 68.7689 53.3376 4
 -8 -12 0 103.019 69.8733 2
 -8 12 0 69.839 55.2753 5
 8 12 0 45.7345 53.2079 7
 8 12 1 979.621 137.952 7
 -8 -12 1 862.3 166.607 2
 -8 -12 2 116.52 73.8529 2
 8 12 2 119.4 60.3973 7
 -8 -12 3 405.977 117.14 2
 -9 0 0 2.82439 46.4118 5
 9 0 0 158.115 62.8837 7
 -9 0 0 29.9954 74.6127 8
 9 0 0 -5.63089 64.5616 6
 9 0 0 19.4563 53.7701 4
 -9 0 0 4.33723 67.416 2
 -9 0 1 100517 1559.54 2
 -9 0 -1 85798.2 1406.39 2
 -9 0 -1 103141 1244.44 5
 -9 0 1 98149.9 1186.27 5
 9 0 -1 122590 1398.39 4
 9 0 -1 100470 1203.09 7
 9 0 1 98407.4 1189.41 7
 9 0 1 118328 1301.59 4
 -9 0 1 125168 1635.05 8
 9 0 2 121.464 58.4556 7
 9 0 -2 253.215 75.6669 7
 -9 0 2 169.96 63.8927 5
 -9 0 -2 202.962 89.2305 2
 -9 0 2 367.508 116.345 2
 9 0 2 202.931 73.3462 4
 9 0 -2 134.734 64.7937 4
 9 0 -3 93268.1 1124.85 6
 -9 0 3 82407.3 1291.98 8
 9 0 3 72530.1 1007.19 4
 -9 0 3 82575.4 1466.55 2
 -9 0 3 76132.2 1092.37 5
 -9 0 -3 85591 1144.56 5
 9 0 -3 88021.5 1196.74 7
 -9 0 -3 69300.4 1197.14 2
 9 0 3 84527.1 1063.84 7
 9 0 4 860.641 120.442 4
 -9 0 -4 775.451 133.832 2
 9 0 -4 694.379 116.234 6
 -9 0 4 410.264 131.068 8
 -9 0 4 734.107 111.644 5
 9 0 -4 683.939 112.683 4
 -9 0 4 854.266 168.427 2
 9 0 4 956.917 116.687 7
 9 0 -4 793.088 114.199 7
 -9 0 -5 38432 769.833 5
 -9 0 5 33947.5 749.649 5
 9 0 5 28179.5 630.98 4
 -9 0 5 29632.5 905.688 2
 -9 0 5 31068.2 754.01 8
 9 0 -5 25962.7 610.737 4
 9 0 -5 41182.6 793.398 6
 9 0 -5 29787.7 697.63 7
 9 0 5 31971.6 640.139 7
 9 0 6 805.445 125.979 4
 -9 0 -6 797.271 121.321 5
 -9 0 -6 897.271 182.337 3
 9 0 6 1169.77 135.158 7
 9 0 -6 879.597 122.691 6
 -9 0 6 823.998 169.944 2
 9 0 -6 617.676 106.504 4
 -9 0 6 1041.1 129.559 5
 -9 0 6 884.309 136.113 8
 -9 0 -7 12834.3 585.371 3
 9 0 -7 12551.9 460.837 6
 -9 0 7 12208.7 469.76 8
 -9 0 7 11453.1 579.926 2
 9 0 7 11805.3 395.365 7
 -9 0 -7 11200.9 416.671 5
 -9 0 7 10030 400.444 5
 9 0 -7 10791.3 409.96 4
 9 0 8 1503.58 109.643 1
 -9 0 -8 1579.04 159.925 5
 9 0 -8 1039.77 145.825 6
 -9 0 -8 1464.98 201.835 3
 -9 0 8 1682.13 182.695 8
 -9 0 9 2369.49 210.411 8
 9 0 9 1939.31 121.132 1
 -9 0 -9 2335.5 191.394 5
 9 0 -9 2397.06 194.521 6
 -9 0 -9 2159.62 238.13 3
 9 0 -9 1969.29 169.095 4
 9 0 9 1918.43 161.09 7
 -9 0 9 1986.33 256.114 2
 -9 0 -10 389.742 82.5319 5
 9 0 -10 616.334 103.971 6
 9 0 10 508.947 86.4565 7
 -9 0 10 362.478 101.925 8
 -9 0 11 630.876 114.512 8
 9 0 11 716.522 115.818 1
 -9 0 -11 683.064 110.564 5
 9 0 -11 740.866 109.225 6
 -9 0 -11 775.081 135.131 3
 9 0 -11 679.304 101.584 4
 -9 0 11 665.683 169.037 2
 9 0 11 676.693 102.339 7
 -9 1 11 1090.4 193.866 2
 9 -1 11 1200.12 149.797 1
 9 -1 11 1076.52 132.384 7
 9 1 -11 1467.28 143.849 6
 -9 1 11 1371.49 155.343 8
 -9 -1 -11 1158.8 162.804 3
 9 1 -11 1105.52 123.974 4
 -9 -1 -11 1206.12 143.532 5
 -9 -1 -10 317.267 81.8893 5
 -9 1 10 262.854 119.745 2
 9 -1 10 268.881 69.0909 7
 -9 1 9 3192.07 221.738 5
 9 -1 9 3054.31 202.614 7
 9 -1 9 3735.08 184.644 1
 -9 -1 -9 3727.97 289.688 3
 9 1 -9 3240.96 210.934 6
 -9 1 9 3508.14 246.899 8
 9 1 -9 2856.12 202.172 4
 -9 1 9 2883.88 311.805 2
 -9 -1 -9 2969.41 216.854 5
 -9 1 8 253.783 80.6794 8
 -9 1 8 194.893 109.828 2
 9 -1 8 277.602 77.4308 4
 9 1 -8 251.633 72.1277 4
 9 -1 8 233.603 52.2465 1
 -9 1 8 282.367 75.6377 5
 -9 -1 -8 273.434 112.404 3
 9 1 -8 343.989 85.1261 7
 9 1 -8 172.72 65.1941 6
 -9 1 7 8156.12 352.64 5
 -9 1 7 8406.6 516.876 2
 9 -1 7 6983.2 305.199 7
 9 -1 7 7951.93 346.269 4
 -9 1 7 7169.34 364.329 8
 9 1 -7 6605.43 319.155 4
 9 -1 7 8979.86 263.13 1
 -9 -1 -7 8454.97 469.404 3
 9 1 -7 7931.69 340.543 6
 -9 -1 -7 7935.28 352.798 5
 9 1 -7 6626.17 333.15 7
 -9 1 6 265.749 73.5596 5
 -9 1 6 144.711 95.1198 2
 -9 -1 -6 123.201 70.1112 2
 -9 1 6 201.457 80.6821 8
 9 -1 6 152.054 65.1949 4
 9 1 -6 247.417 73.8595 4
 -9 -1 -6 374.837 90.9186 5
 9 -1 6 427.316 79.9272 1
 9 -1 6 449.775 83.6357 7
 -9 -1 -6 260.693 117.934 3
 9 1 -6 171.312 77.8682 6
 9 1 -6 143.188 59.263 7
 -9 1 5 11895.2 468.242 8
 -9 1 5 12589.5 431.236 5
 9 1 -5 11177 411.843 6
 9 1 -5 10106.4 394.626 4
 -9 1 5 12089.6 601.058 2
 -9 -1 -5 12527.1 598.062 3
 -9 -1 -5 12457.3 456.635 5
 9 -1 5 10653.3 385.527 4
 -9 -1 -4 80.775 66.9771 2
 -9 1 4 186.836 70.4711 5
 -9 1 4 127.616 76.9446 8
 9 1 -4 53.8824 53.102 4
 9 1 -4 79.8074 70.77 6
 9 1 -4 61.0671 50.6151 7
 9 -1 4 72.053 43.3877 7
 9 -1 3 9333.98 358.037 4
 9 -1 3 9640.3 363.534 7
 -9 1 3 9638.81 504.361 2
 9 1 -3 9046.15 365.196 4
 -9 1 3 9613.95 372.727 5
 -9 -1 -3 9517.37 385.104 5
 9 1 -3 11849.2 448.973 7
 -9 1 3 9720.72 440.388 8
 9 1 -3 11116.4 404.615 6
 -9 -1 -3 10641.6 478.491 2
 9 -1 2 54.6421 57.6538 4
 9 1 -2 143.157 69.0628 4
 -9 -1 -2 73.3525 65.7794 2
 -9 1 2 75.1031 80.081 2
 9 1 -2 87.8169 57.0792 7
 9 -1 2 65.1065 42.5777 7
 -9 -1 -2 141.617 67.1128 5
 -9 1 2 68.4035 60.4638 5
 -9 1 1 2129.02 231.773 2
 -9 -1 -1 2078.89 222.711 2
 -9 1 1 2938.2 208.342 5
 -9 -1 -1 2630.24 202.826 5
 9 1 -1 2381.05 184.653 4
 9 1 -1 2409.23 194.253 7
 9 -1 1 3273.52 216.026 7
 -9 1 1 2815.33 235.73 8
 9 -1 1 2761.42 204.381 4
 -9 -1 0 134.747 60.726 5
 -9 1 0 319.619 79.7722 5
 9 -1 0 78.39 57.9454 4
 9 1 0 165.997 67.861 4
 9 1 0 243.06 80.1913 6
 -9 -1 0 205.22 90.6587 2
 -9 1 0 152.07 83.5202 2
 -9 1 0 -12.4788 74.1069 8
 9 -1 0 171.279 60.8083 7
 9 1 0 131.973 54.1905 7
 9 1 1 3732.12 232.202 7
 9 -1 -1 2080.16 178.411 7
 -9 1 -1 2945.9 256.623 8
 -9 1 -1 2826.13 209.923 5
 -9 -1 1 2849.25 203.558 5
 -9 1 -1 2690.37 254.019 2
 -9 -1 1 2357.79 244.19 2
 9 -1 -1 2837.7 204.738 4
 9 1 1 3034.88 215.317 4
 9 -1 -2 58.9898 64.7253 6
 -9 -1 2 82.547 81.8643 2
 -9 -1 2 22.7467 70.9823 8
 9 1 2 25.2967 52.9811 4
 -9 1 -2 157.275 74.7376 5
 -9 -1 2 29.0808 45.6434 5
 9 1 2 287.089 71.7811 7
 9 -1 -3 8753.19 341.714 4
 9 -1 -3 9612.89 373.089 6
 9 1 3 9063.76 362.955 4
 -9 -1 3 8957.06 432.504 8
 9 1 3 8290.72 341.115 7
 -9 -1 3 9681.47 378.275 5
 9 -1 -4 55.9599 66.4334 6
 9 1 4 41.5379 51.497 4
 9 -1 -4 108.996 63.7986 4
 -9 1 -4 89.85 63.2015 5
 -9 -1 4 61.76 57.4256 5
 -9 -1 4 47.2868 90.045 2
 -9 -1 4 51.4877 75.1507 8
 9 1 4 157.08 59.6606 7
 -9 -1 5 13043.9 526.849 8
 -9 -1 5 10578.6 541.991 2
 9 -1 -5 10051.9 393.741 6
 -9 1 -5 11497.2 409.603 5
 9 1 5 8752.44 346.737 7
 9 -1 -6 137.925 79.5669 6
 -9 1 -6 197.597 72.1133 5
 -9 -1 6 164.53 75.4768 8
 -9 1 -6 162.577 110.649 3
 9 -1 -6 123.665 63.0221 4
 -9 -1 6 202.859 99.8416 2
 9 1 6 162.144 52.6421 7
 9 1 7 8628.3 356.406 7
 -9 1 -7 8451.42 482.773 3
 -9 -1 7 8109.63 390.442 8
 9 -1 -7 7843.51 335.969 4
 9 1 8 178.915 57.0006 7
 9 -1 -8 268.549 75.5048 4
 -9 -1 8 423.65 100.62 8
 9 1 8 244.364 55.2958 1
 -9 1 -8 283.857 78.7854 5
 9 -1 -8 293.327 84.2896 6
 -9 -1 8 201.926 109.471 2
 -9 1 -8 284.495 122.66 3
 -9 -1 9 3419.45 254.168 8
 9 -1 -9 2488.62 216.461 6
 9 1 9 3040.46 151.142 1
 -9 -1 9 2874.4 304.039 2
 -9 1 -9 3392.31 288.059 3
 9 -1 -9 2811.14 211.241 4
 -9 1 -9 3294.97 219.737 5
 9 1 9 3051.6 198.34 7
 9 1 10 366.555 72.5413 7
 9 -1 -10 320.278 89.321 6
 -9 -1 10 400.154 99.8908 8
 9 1 11 974.074 113.819 7
 9 -1 -11 1620.69 163.653 6
 9 1 11 1019.87 128.683 1
 9 -1 -11 1156.37 134.094 4
 -9 -1 11 1306.72 161.872 8
 -9 1 -11 1241.08 168.944 3
 -9 -1 11 1014.43 187.649 2
 -9 1 -11 1150.36 131.875 5
 9 2 -11 249.05 65.0895 4
 -9 2 11 126.152 96.9674 2
 -9 -2 -11 306.13 85.075 5
 9 2 -11 289.28 74.7563 6
 -9 2 11 260.29 78.0732 8
 -9 -2 -11 267.392 99.4431 3
 9 -2 11 217.679 75.6737 1
 9 -2 11 105.255 61.4825 7
 -9 -2 -10 1881 178.837 5
 9 -2 10 1690.86 160.639 4
 -9 2 10 1782.84 167.589 5
 9 -2 10 1888.72 172.465 7
 -9 2 10 2018.01 186.505 8
 9 2 -10 1839.59 178.998 7
 -9 -2 -9 633.954 106.546 5
 9 2 -9 592.325 106.24 7
 9 2 -9 630.659 103.941 6
 -9 -2 -9 728.117 139.868 3
 9 -2 9 582.131 97.4806 7
 9 2 -9 745.925 105.363 4
 -9 2 9 650.451 102.57 5
 9 -2 9 637.61 105.382 4
 -9 2 9 632.181 114.094 8
 -9 2 9 772.251 176.068 2
 9 -2 9 555.995 105.3 1
 -9 2 8 5458.37 424.589 2
 9 -2 8 5565.08 212.102 1
 9 2 -8 6223.21 288.745 6
 9 -2 8 5236.09 267.634 7
 -9 -2 -8 5608.36 363.304 3
 9 2 -8 5113.01 271.123 4
 -9 2 8 5655.06 307.687 8
 -9 -2 -7 877.124 146.79 2
 -9 -2 -7 1085.31 135.832 5
 9 2 -7 849.932 122.915 7
 9 2 -7 865.456 122.008 4
 -9 2 7 838.066 177.7 2
 9 -2 7 777.985 107.303 7
 -9 2 7 903.068 123.733 5
 9 -2 7 957.02 124.583 4
 -9 -2 -6 10929.9 554.952 3
 -9 2 6 11201.8 579.794 2
 -9 -2 -6 10493.6 415.771 5
 -9 -2 -6 11182.7 471.843 2
 -9 2 6 12116.5 429.146 5
 9 2 -6 11312.7 441.373 7
 9 2 -6 12898.4 441.602 6
 9 -2 6 11937.5 396.859 7
 -9 2 6 12053.6 466.681 8
 9 2 -6 11979.9 435.562 4
 9 -2 6 13207 309.69 1
 -9 2 5 11740 586.297 2
 -9 2 5 10360.8 387.107 5
 -9 -2 -5 11150.5 481.931 2
 9 -2 5 10099.3 374.813 4
 -9 2 5 11850 468.314 8
 9 -2 5 11404.7 398.711 7
 9 2 -5 10098.1 392.168 4
 -9 -2 -5 9104.28 392.142 5
 9 2 -5 10668.4 410.536 7
 9 -2 4 28922 647.143 7
 9 -2 4 25975.9 608.615 4
 -9 2 4 27109.8 651.962 5
 -9 -2 -4 24131.5 620.112 5
 -9 -2 -4 26356.9 868.453 3
 9 2 -3 29237.1 656.894 4
 9 -2 3 26937.6 593.547 7
 -9 2 3 27244.8 862.051 2
 9 2 -3 28534.7 656.943 7
 -9 -2 -2 33256.7 834.897 2
 -9 2 2 31587.4 901.53 2
 -9 2 2 33060.1 722.892 5
 -9 -2 -2 31099 696.123 5
 9 2 -1 48952.3 864.765 7
 -9 2 1 41643.8 1003.29 2
 -9 -2 -1 41011.2 946.434 2
 -9 2 1 54892.9 870.071 5
 -9 -2 -1 55586.1 953.481 5
 -9 2 1 43236.2 912.689 8
 9 2 -1 41271.6 754.882 4
 9 2 0 52023.3 876.186 4
 -9 -2 0 50613.1 1071.64 2
 9 2 0 49138.3 839.534 7
 -9 2 0 45574.4 806.206 5
 -9 -2 0 47215.4 846.897 5
 -9 2 0 39143.4 979.995 8
 9 2 0 38295.2 720.791 6
 9 2 1 47321.6 850.592 4
 9 2 1 49867.2 848.798 6
 9 -2 -1 43353.1 798.273 6
 -9 -2 1 43372.5 1002.87 2
 9 2 1 48694 828.117 7
 -9 2 -1 46824 1007.88 8
 -9 -2 1 47842.9 1026.88 8
 9 -2 -2 32722.2 669.428 6
 -9 -2 2 32638.3 832.906 8
 -9 -2 3 33232.9 824.209 8
 9 -2 -3 34428.3 703.494 6
 9 2 3 33505.1 691.309 7
 9 2 4 20163.3 527.5 7
 -9 -2 4 21686.6 668.459 8
 9 -2 -4 22119.5 573.072 6
 9 -2 -4 20699 552.039 4
 -9 2 -4 23298.7 611.124 5
 -9 -2 5 11574.3 567.001 2
 -9 -2 5 11950.3 502.072 8
 9 2 5 12245.2 410.247 7
 9 -2 -5 12253.2 420.575 6
 9 -2 -5 11729.7 418.772 4
 -9 2 -5 11923.5 422.023 5
 -9 -2 6 11658.2 567.434 2
 9 2 6 10915.4 381.061 7
 9 -2 -6 12799.3 443.675 6
 9 -2 -6 12031.4 409.331 4
 -9 2 -6 10370.2 405.758 5
 -9 -2 6 14109.2 550.012 8
 9 2 7 1528.24 144.937 7
 9 -2 -8 5369.57 284.82 4
 -9 2 -8 5596.06 303.773 5
 -9 -2 8 6113.03 422.103 2
 -9 2 -8 6800.72 427.335 3
 9 2 8 5517.05 277.766 7
 9 -2 -8 4370.05 270.671 6
 9 -2 -9 1354.01 148.807 4
 -9 -2 9 1480.45 176.282 8
 -9 2 -9 1496.97 154.47 5
 -9 -2 9 1276.36 207.353 2
 9 -2 -9 1600.59 174.668 6
 9 2 9 1370.89 105.203 1
 -9 -2 10 1842.15 240.299 2
 -9 -2 11 436.005 133.833 2
 9 2 11 434.407 78.0112 7
 9 -2 -11 413.643 86.8882 4
 -9 2 -11 449.525 89.2407 5
 -9 2 -11 465.406 114.508 3
 9 -2 -11 578.327 109.993 6
 -9 -2 11 392.156 102.492 8
 9 3 -11 154.573 60.7004 7
 9 -3 11 90.5293 59.4764 1
 -9 3 11 179.574 105.843 2
 -9 3 11 202.763 72.3277 8
 -9 -3 -11 127.934 66.0866 5
 9 3 -11 176.183 63.9054 6
 9 -3 11 85.2264 57.3953 4
 9 3 -11 167.453 58.7144 4
 -9 -3 -11 201.73 91.5182 3
 -9 -3 -10 1356.69 179.369 3
 -9 3 10 1879.59 176.703 8
 9 3 -10 1465.22 141.391 6
 9 3 -10 1656.42 147.266 4
 9 -3 9 1856.42 169.076 4
 -9 3 9 1946.75 170.853 5
 -9 -3 -9 2036.69 216 3
 -9 -3 -9 1966.41 202.243 2
 -9 3 9 2040.42 276.371 2
 9 3 -9 1623.01 167.072 7
 9 3 -9 2049.93 170.039 6
 9 -3 9 2101.81 193.741 1
 9 3 -9 1627.8 151.307 4
 -9 -3 -9 2058.99 188.858 5
 -9 3 8 2655.1 200.171 5
 -9 -3 -8 1972.89 199.062 2
 -9 -3 -8 2406.4 234.179 3
 -9 3 8 2414.02 292.021 2
 9 3 -8 2269.14 180.643 6
 -9 3 8 2725.12 219.618 8
 9 -3 8 2523.8 197.542 4
 9 3 -8 2086.09 190.917 7
 9 3 -8 2247.17 178.892 4
 9 -3 7 2459.24 191.776 4
 -9 -3 -7 2391 226.687 2
 -9 3 7 2890.35 211.547 5
 -9 3 7 2824.1 220.074 8
 9 3 -7 2912.24 200.342 6
 -9 3 7 2911.69 338.743 2
 -9 -3 -7 2280.87 201.533 5
 9 3 -7 2464.1 204.328 7
 9 3 -7 3266.06 219.571 4
 -9 -3 -6 3342.74 296.882 3
 -9 3 6 2188.47 283.23 2
 -9 -3 -6 3330.88 257.976 2
 -9 3 6 4345.41 261.579 5
 9 -3 6 2895.78 150.077 1
 9 3 -6 3619.73 224.572 6
 -9 -3 -6 4174.4 259.408 5
 9 3 -6 3885.14 251.925 7
 9 3 -6 5146.14 286.598 4
 9 -3 6 4135.76 242.839 4
 9 -3 5 4049.03 239.037 4
 -9 -3 -5 4047.25 292.998 2
 -9 3 5 4197.35 248.711 5
 -9 3 5 3459.29 254.702 8
 -9 3 5 4041.38 352.867 2
 9 3 -5 4263.62 262.653 7
 9 -3 5 4278.62 185.317 1
 -9 -3 -5 4004.4 362.698 3
 -9 3 4 2703.52 202.349 5
 9 -3 4 3256.3 218.446 4
 -9 3 4 2753.27 289.5 2
 -9 -3 -4 2762.26 216.778 5
 9 3 -4 2396.61 213.862 6
 9 3 -4 2786.08 216.342 7
 -9 -3 -4 2985.52 248.235 2
 -9 -3 -4 3069.61 304.982 3
 -9 3 4 2939.8 235.358 8
 9 3 -3 7293.68 339.156 6
 -9 -3 -3 5770.65 420.898 3
 -9 3 3 7730.87 343.849 5
 -9 -3 -3 4818.58 326.288 2
 -9 3 3 6178.58 336.322 8
 9 -3 3 5798.53 289.495 4
 9 3 -3 5440.15 288.046 7
 9 3 -3 4384.01 265.103 4
 9 3 -2 3888.37 245.98 6
 9 3 -2 2970.01 238.436 7
 -9 3 2 3624.18 232.904 5
 -9 -3 -2 3829.47 296.46 2
 9 -3 2 3958.94 237.191 4
 9 3 -2 3131.88 224.148 4
 -9 -3 -1 1508.56 189.674 2
 -9 3 1 1576.93 188.545 8
 9 3 0 1709.05 165.738 6
 -9 3 0 1583.84 184.231 8
 9 -3 0 2179.5 180.406 4
 -9 3 0 2107.32 183.556 5
 -9 -3 0 2152.19 232.91 2
 9 3 1 1822.09 175.12 6
 -9 -3 1 1674.67 204.147 2
 -9 3 -1 1717.81 158.972 5
 9 3 1 1695.18 158.788 7
 -9 -3 1 2076.91 220.949 8
 -9 3 -1 2141.27 229.749 8
 9 -3 -1 1538.97 156.442 4
 9 -3 -2 2926.08 219.14 6
 -9 -3 2 3785.08 314.995 2
 -9 3 -2 4341.1 261.465 5
 9 3 2 2624.56 213.58 7
 -9 -3 2 4192.22 313.321 8
 9 -3 -2 3979.81 240.582 4
 9 -3 -3 7059.36 317.875 6
 -9 -3 3 5869.32 391.149 2
 -9 3 -3 7045.46 323.757 5
 -9 -3 3 6703.3 388.815 8
 9 -3 -3 7200.02 317.511 4
 9 -3 -4 2799.9 209.417 6
 -9 -3 4 3319.68 284.063 8
 -9 -3 4 3049.07 291.343 2
 9 3 4 3322.34 216.761 7
 -9 3 -4 3698.64 236.303 5
 9 -3 -4 2545.59 202.11 4
 9 -3 -5 4225.56 248.484 4
 -9 -3 5 4448.89 308.772 8
 9 -3 -5 3746.29 238.547 6
 9 3 5 3883.97 236.799 7
 -9 3 -5 4539.52 272.273 5
 -9 -3 5 4432.07 356.987 2
 9 -3 -6 5093.29 284.335 4
 -9 -3 6 3901.01 297.984 8
 -9 3 -6 3770.77 236.666 5
 -9 -3 6 3425.99 317.233 2
 9 3 6 3417.12 215.721 7
 9 -3 -6 5329.69 290.452 6
 -9 3 -7 3047.03 216.179 5
 -9 -3 7 3076.03 298.531 2
 -9 3 -7 3671.79 337.974 3
 9 -3 -7 4016.78 241.256 4
 9 3 7 3287.84 206.572 7
 -9 -3 8 2817.85 251.79 8
 -9 3 -8 2656.44 280.273 3
 -9 -3 8 2467.78 272.579 2
 -9 3 -8 2379.66 199.715 5
 9 -3 -8 2372.01 188.042 4
 9 3 8 2829.94 206.377 7
 9 -3 -8 2387.45 204.046 6
 9 -3 -9 1831.38 159.98 3
 9 3 9 1903.93 158.134 7
 -9 3 -9 1801.62 169.651 5
 -9 -3 9 2026.51 247.293 2
 9 3 9 1933.01 124.671 1
 -9 -3 9 2203.36 224.763 8
 -9 3 -9 2022.4 235.496 3
 9 -3 -9 1735.06 170.05 4
 9 -3 -9 1886.85 182.052 6
 -9 3 -10 1173.19 134.174 5
 9 3 10 1242.98 100.292 1
 -9 3 -10 1678.12 210.112 3
 9 3 10 1289.11 128.135 7
 -9 -3 10 1324.85 210.721 2
 9 -3 -10 1540.26 157.966 4
 9 -3 -11 125.106 70.9374 6
 9 -3 -11 169.183 69.5176 4
 -9 -3 11 153.363 94.6235 2
 -9 -3 11 94.0193 72.0507 8
 -9 3 -11 221.904 89.2147 3
 9 3 11 129.157 51.8735 7
 -9 3 -11 134.348 62.3041 5
 9 3 11 175.325 63.3741 1
 -9 -4 -11 1067.36 157.213 3
 9 4 -11 805.014 111.015 4
 9 -4 11 884.063 129.097 1
 9 4 -11 781.479 119.001 7
 -9 4 11 889.284 185.751 2
 9 4 -11 1041.59 118.196 6
 -9 4 11 961.861 130.124 8
 9 4 -10 2132.19 190.119 7
 -9 4 10 2997.87 219.625 8
 -9 -4 -10 2452.41 219.253 2
 9 4 -10 2841.82 189.096 6
 9 4 -10 2493.31 184.158 4
 -9 4 10 2561.89 194.963 5
 9 -4 10 2737.2 203.467 4
 -9 4 10 2736.63 307.94 2
 9 -4 10 2056.83 191.253 1
 -9 -4 -10 3024.65 264.039 3
 9 4 -9 1909.29 178.121 7
 -9 -4 -9 1838.42 192.746 2
 9 -4 9 1852.88 167.826 4
 -9 4 9 2030.67 173.472 5
 -9 4 9 1731.26 259.616 2
 9 4 -9 2082.05 170.823 6
 -9 -4 -9 2087.94 220.925 3
 9 -4 9 1685.42 177.109 1
 9 4 -9 1762.08 156.296 4
 -9 4 8 4796.56 265.89 5
 9 -4 8 3508.23 258.519 1
 -9 -4 -8 4600.76 295.592 2
 9 4 -8 3663.63 253.271 7
 9 -4 8 4363.48 256.026 4
 -9 4 8 4207.22 384.658 2
 -9 -4 -8 4966.21 333.416 3
 9 4 -8 5145.62 265.148 6
 9 4 -8 4025.82 244.983 4
 9 4 -7 4573.58 273.242 7
 -9 4 7 4476.16 279.583 8
 9 -4 7 4042.67 244.19 4
 -9 -4 -7 2959.47 248.079 2
 -9 4 7 4073.28 381.688 2
 9 -4 7 2869.25 216.332 1
 -9 -4 -7 5222.7 362.664 3
 -9 4 7 5247.93 279.363 5
 9 4 -7 3900.84 247.511 4
 -9 4 6 10353.5 419.836 8
 9 -4 6 8056.59 344.396 4
 9 4 -6 9341.18 395.401 4
 -9 4 6 12767.5 434.002 5
 -9 -4 -6 10122 495.861 3
 9 4 -6 13883 477.777 7
 9 -4 6 12976.8 350.071 1
 -9 -4 -6 9652.73 438.386 2
 -9 4 5 1720.3 180.624 8
 9 -4 5 1511.28 150.605 4
 -9 4 5 1517.41 151.549 5
 -9 -4 -5 1482.65 212.102 3
 9 4 -5 1897.64 180.03 7
 -9 -4 -5 1527.63 186.699 2
 9 -4 5 1398.02 107.634 1
 9 4 -5 1552.98 156.742 6
 -9 4 4 20663.1 618.644 8
 9 4 -4 24416.8 632.167 7
 -9 -4 -4 23704.8 699.285 2
 -9 -4 -4 21072.4 749.663 3
 9 -4 4 21148.1 546.205 4
 9 -4 4 18489.1 383.783 1
 9 -4 3 287.945 83.3501 4
 -9 -4 -3 254.012 96.5335 2
 9 4 -3 332.988 82.3649 7
 -9 4 3 308.096 89.5875 8
 9 4 -3 337.785 88.256 6
 -9 -4 -3 290.572 117.919 3
 -9 4 3 346.563 85.9841 5
 9 4 -2 39093.3 804.373 7
 -9 4 2 36578.7 736.266 5
 -9 -4 -2 36992.9 892.106 2
 9 4 -2 45187.3 832.3 6
 -9 4 2 43799.1 922.436 8
 9 -4 2 33240.4 691.478 4
 -9 4 1 396.278 87.3502 5
 9 -4 1 411.175 94.2581 4
 -9 -4 -1 428.925 112.833 2
 -9 -4 -1 388.966 137.226 3
 -9 4 0 33633.7 687.208 5
 -9 -4 0 32298.4 900.608 2
 9 4 0 35725.8 746.54 7
 -9 4 0 37884.1 861.755 8
 9 -4 0 30367.4 680.948 4
 9 4 0 34372.3 691.855 6
 -9 -4 1 229.766 101.509 2
 -9 4 -1 417.685 85.4263 5
 9 4 1 223.363 88.8743 6
 9 4 1 233.795 73.5718 7
 9 -4 -1 180.81 69.5617 4
 -9 4 -1 91.6639 73.5914 8
 9 4 2 37632.6 748.034 7
 -9 -4 2 36443.1 934.312 2
 9 -4 -3 435.253 92.4782 4
 -9 -4 3 308.139 108.941 8
 -9 4 -3 276.816 83.2633 5
 -9 -4 3 267.352 111.469 2
 9 -4 -3 538.652 107.626 6
 9 4 3 311.356 78.89 7
 9 4 4 23964.2 580.797 7
 -9 -4 4 31333 897.433 8
 9 -4 -4 27859.7 613.78 4
 -9 4 -4 21140.8 574.318 5
 -9 -4 4 23332.7 780.722 2
 9 -4 -5 1514.24 156.922 6
 -9 4 -5 1739.56 168.711 5
 -9 -4 5 1519.01 214.516 2
 9 -4 -5 1629.93 171.809 4
 9 4 5 1635.99 154.484 7
 9 -4 -6 12458 444.273 6
 -9 -4 6 11886.4 509.861 8
 -9 -4 7 4205.56 304.753 8
 9 4 7 4930.1 252.577 7
 -9 4 -7 4648.37 274.455 5
 9 -4 -7 4811.46 271.975 4
 -9 -4 7 4727.13 366.423 2
 -9 -4 8 4356.63 316.103 8
 9 4 8 6392.13 298.196 7
 -9 4 -8 5703.87 403.517 3
 -9 -4 8 5789.64 405.759 2
 9 -4 -8 4888.43 252.832 3
 -9 4 -8 4583.8 280.749 5
 9 -4 -8 5485.45 297.204 4
 -9 -4 9 2497.84 242.884 8
 9 -4 -9 1857.59 171.983 3
 9 4 9 2024.48 127.178 1
 -9 4 -9 2121.68 277.682 3
 9 -4 -9 2561.48 208.944 6
 -9 4 -10 3279.01 292.051 3
 -9 -4 10 3056.77 298.179 2
 -9 4 -10 2888.33 204.824 5
 -9 -4 10 2892.74 266.373 8
 9 -4 -10 2428.39 219.799 6
 -9 -4 10 2203.66 244.905 1
 9 4 10 2685.46 145.342 1
 9 -4 -10 2986.07 197.945 3
 9 -4 -10 2606.59 200.149 4
 9 4 10 2730.26 183.553 7
 9 4 11 1156.92 110.945 1
 9 -4 -11 970.5 117.741 3
 9 4 11 874.902 111.761 7
 9 -4 -11 875.271 119.214 4
 -9 -4 11 1230.42 176.54 8
 -9 -4 11 793.676 155.985 1
 -9 4 -11 1151.08 167.402 3
 -9 -4 11 904.897 170.891 2
 -9 4 -11 971.294 124.008 5
 9 5 -10 1283.68 148.284 7
 -9 -5 -10 1270.97 174.168 2
 9 5 -10 1559.12 144.052 6
 9 -5 10 1086.91 143.241 1
 -9 -5 -10 1509.74 184.47 3
 -9 5 10 1322.9 140.586 5
 9 -5 10 1414.29 144.092 4
 9 -5 9 567.899 99.1449 4
 -9 5 9 555.575 95.665 5
 9 5 -9 604.859 105.34 7
 9 5 -9 577.547 93.7865 6
 -9 -5 -9 553.91 126.822 3
 -9 5 9 415.017 100.283 8
 -9 5 8 1340.61 179.299 8
 9 5 -8 2216.27 175.431 6
 9 -5 8 2257.38 184.314 4
 -9 -5 -8 2452.45 217.432 2
 -9 -5 -8 2606.1 249.258 3
 -9 5 8 2264.24 184.337 5
 9 5 -8 3260.06 232.952 7
 9 -5 8 2309.65 203.871 1
 -9 5 7 139.93 74.66 8
 9 -5 7 303.534 79.7218 4
 -9 -5 -7 236.864 106.464 3
 9 -5 7 237.042 81.4953 1
 9 5 -7 272.937 77.9112 6
 9 5 -7 342.581 85.8069 7
 -9 -5 -7 298.07 90.3046 2
 9 5 -6 4068.24 268.162 7
 9 -5 6 4052.76 271.357 1
 -9 5 6 4986.25 271.307 5
 9 5 -6 5113.06 264.679 6
 -9 -5 -6 4505.26 296.684 2
 -9 5 6 4112.47 265.155 8
 -9 -5 -5 888.177 142.744 2
 9 -5 5 728.398 113.947 1
 9 5 -5 759.552 113.645 6
 -9 -5 -5 866.477 157.462 3
 -9 5 5 788.794 128.774 8
 9 -5 4 4371.44 245.265 4
 -9 -5 -4 4658.63 317.194 2
 -9 5 4 4570.62 294.012 8
 -9 5 4 4405.22 276.504 5
 -9 -5 -4 4544.58 351.908 3
 9 5 -4 4829.68 284.868 6
 9 -5 4 4051.94 192.382 1
 9 5 -4 4462.98 272.755 7
 9 5 -3 1390.65 151.553 7
 -9 5 3 1427.43 168.849 8
 -9 -5 -3 1154.87 188.611 3
 -9 5 3 1416.7 152.032 5
 9 -5 3 1611.87 160.423 4
 -9 -5 -2 1707 200.602 2
 9 5 -2 1625.29 168.011 7
 -9 5 2 1870.86 172.083 5
 -9 5 2 2117 212.416 8
 9 5 -2 1858.13 178.695 6
 9 -5 2 1727.79 163.894 4
 -9 5 1 451.876 95.0087 5
 9 -5 1 526.653 100.841 4
 -9 -5 -1 472.988 116.061 2
 9 5 -1 431.459 94.1202 6
 9 5 -1 408.457 92.6246 7
 9 -5 0 166.7 79.5018 4
 -9 -5 0 283.845 102.369 2
 9 5 0 215.592 70.3477 7
 -9 5 0 378.119 84.9116 5
 -9 5 -1 449.615 88.7832 5
 9 5 1 283.499 77.374 7
 9 -5 -1 406.179 86.8255 4
 -9 -5 1 452.792 125.35 2
 -9 5 -2 1967.07 175.213 5
 -9 -5 2 2059.81 229.804 2
 9 5 2 1567.98 160.091 7
 -9 5 -3 1673.85 166.291 5
 9 5 3 1723.45 166.189 7
 -9 -5 3 1543.64 208.052 2
 9 -5 -3 1979.89 175.115 4
 9 -5 -4 4997.59 267.974 4
 9 -5 -4 5675.61 310.3 6
 -9 -5 4 4826.64 343.837 8
 -9 -5 4 4742.02 356.384 2
 9 5 4 4875.91 271.871 7
 9 -5 -5 1114.95 156.624 6
 -9 -5 5 1310.1 217.863 8
 9 -5 -6 2964.49 250.902 4
 -9 5 -6 4824.09 271.268 5
 9 5 6 5296.2 268.033 7
 -9 -5 6 5103.43 384.431 2
 -9 -5 6 3482.39 327.726 8
 -9 -5 7 532.022 131.271 8
 9 -5 -7 534.145 101.674 6
 -9 5 -7 417.599 90.3827 5
 9 -5 -7 434.586 95.5585 4
 9 5 7 498.115 88.4441 7
 -9 -5 7 575.488 157.948 2
 -9 -5 8 2816.67 271.036 8
 -9 5 -8 2873.71 216.43 5
 -9 -5 8 2508.76 278.35 2
 9 -5 -8 2410.04 193.957 4
 9 -5 -8 2584.28 212.539 6
 9 5 8 2537.8 186.029 7
 -9 5 -8 2231.25 274.445 3
 9 -5 -8 2351.16 174.404 3
 9 5 9 619.47 98.7204 7
 -9 -5 9 546.084 135.814 1
 -9 -5 9 592.394 149.058 2
 -9 5 -9 638.72 109.958 5
 9 -5 -9 582.085 93.8062 3
 9 -5 -9 712.601 120.101 6
 9 -5 -9 588.96 106.588 4
 -9 5 -10 1594.99 207.135 3
 -9 -5 10 1392.54 207.723 2
 9 5 10 1305.31 103.254 1
 -9 5 -10 1342.89 143.728 5
 -9 -5 10 1299.86 193.265 1
 9 5 10 1249.47 128.062 7
 9 -5 -10 1394.83 141.95 3
 9 6 -10 67.7697 53.2169 7
 -9 -6 -10 108.895 77.1031 3
 -9 -6 -10 85.0064 64.0927 2
 9 -6 10 91.2534 66.5424 1
 9 -6 9 6797.58 351.082 1
 9 6 -9 6000.73 304.464 7
 9 -6 9 6101.84 296.062 4
 -9 6 9 6835.59 314.293 5
 -9 -6 -9 5938.91 336.216 2
 -9 -6 -9 6419.54 370.34 3
 9 6 -9 6443.28 292.585 6
 9 -6 8 494.485 105.411 1
 -9 -6 -8 537.469 126.849 3
 9 6 -7 9310.8 395.06 7
 9 -6 7 10304.7 394.893 4
 -9 -6 -7 9756.97 430.025 2
 9 6 -7 9067.31 358.03 6
 -9 6 7 10964.9 436.399 8
 -9 -6 -7 8631.69 454.5 3
 -9 6 7 10237.3 392.223 5
 9 6 -6 973.364 123.327 6
 -9 -6 -6 976.691 164.107 3
 -9 -6 -6 1064.41 151.848 2
 -9 6 6 1319.05 147.914 5
 9 6 -6 1096.14 140.361 7
 -9 6 6 1207.38 151.613 8
 9 -6 5 11584.9 404.45 4
 -9 6 5 10377.9 394.411 5
 -9 -6 -5 10776.2 510.305 3
 9 6 -5 12039.3 447.624 7
 -9 6 4 2237.39 211.833 8
 9 -6 4 1945.13 168.794 4
 -9 6 4 2307.28 192.602 5
 -9 -6 -4 1793.23 212.575 3
 9 6 -4 2315.41 202.259 6
 9 6 -3 8180.1 359.735 7
 -9 6 3 7737.44 388.737 8
 -9 -6 -3 8173.61 414.312 2
 -9 6 2 4071.57 259.463 5
 9 6 -2 4234.83 271.153 7
 9 6 -2 4118.86 262.873 6
 -9 -6 -2 3567.72 292.366 2
 9 -6 1 9412.54 382.964 4
 -9 6 1 8962.62 364.434 5
 -9 -6 -1 10176.7 483.042 2
 -9 -6 0 5406.8 350.403 2
 9 6 0 5774.58 308.181 7
 9 -6 0 5426.33 288.174 4
 -9 -6 1 8627.83 462.4 2
 -9 6 -1 9165.86 361.539 5
 9 6 1 7801.67 366.494 7
 -9 -6 2 4040.07 322.605 2
 9 6 2 4007.58 252.177 7
 9 -6 -2 4416.2 255.758 4
 -9 6 -2 4287.75 253.981 5
 9 -6 -3 11166.3 426.026 4
 9 6 3 7761.13 342.283 7
 9 6 4 1478.62 148.766 7
 9 -6 -4 2072.47 180.537 4
 -9 -6 4 1691.94 216.273 2
 -9 6 -4 2005.06 184.211 5
 9 6 5 12285.6 413.242 7
 -9 6 -5 13315 453.168 5
 9 -6 -5 13005.9 431.992 4
 9 6 6 1182.39 133.269 7
 9 -6 -6 700.573 153.351 4
 -9 -6 6 1063.49 175.285 8
 -9 6 -6 1335.02 147.49 5
 -9 -6 6 1135.39 191.193 2
 -9 -6 7 9885.17 530.201 2
 9 -6 -7 9518.51 378.89 4
 9 -6 -7 13874.5 499.741 6
 9 -6 -7 9858.05 352.046 3
 -9 -6 7 9781.71 519.504 8
 -9 6 -7 12915.5 435.054 5
 9 6 7 8542.06 336.418 7
 -9 6 -8 421.802 94.1352 5
 9 6 8 372.331 79.3195 7
 -9 -6 8 481.149 148.103 8
 -9 -6 8 493.754 138.733 2
 -9 6 -8 523.969 158.187 3
 9 6 9 6739.69 301.157 7
 -9 -6 9 7795.11 477.088 2
 -9 6 -9 7019.18 458.482 3
 9 -6 -9 6760 287.723 3
 -9 6 -9 7499.88 335.771 5
 -9 -6 9 6883.36 413.832 1
 9 6 10 98.917 41.1498 1
 -9 -6 10 97.3441 80.5753 1
 9 -6 -10 28.5838 50.5427 4
 9 -6 -10 64.4907 53.0536 3
 9 7 -9 1964.51 164.847 6
 9 7 -9 1731.68 177.143 7
 -9 7 9 1859.29 180.44 8
 -9 -7 -9 1786.7 203.244 3
 -9 -7 -9 1703.22 186.894 2
 9 -7 9 2017.22 172.829 4
 -9 7 9 1672.21 165.154 5
 9 7 -8 570.791 98.5109 6
 9 7 -8 474.737 103.794 7
 -9 7 8 571.299 110.714 8
 9 -7 8 597.999 101.194 4
 -9 -7 -8 550.418 117.231 3
 -9 -7 -8 559.585 113.104 2
 -9 7 8 576.878 103.911 5
 9 7 -7 1215.68 141.831 6
 9 7 -7 1172.55 148.548 7
 -9 7 7 1229.49 156.403 8
 -9 -7 -7 1051.49 166.123 3
 -9 7 7 1096.1 131.903 5
 9 -7 7 1303.89 142.968 4
 -9 7 6 995.251 141.317 8
 9 -7 6 1130.07 135.009 4
 -9 -7 -6 1106.34 155.643 2
 9 7 -6 941.054 126.688 6
 9 7 -6 1025.28 137.563 7
 -9 7 6 938.934 128.418 5
 -9 7 5 800.181 133.693 8
 -9 7 5 1026.87 132.663 5
 9 7 -5 831.945 121.871 6
 9 7 -5 1049.64 138.261 7
 -9 -7 -5 1033.44 149.812 2
 9 -7 5 965.563 122.912 4
 9 7 -4 1688.93 171.587 7
 9 -7 4 1422.49 145.786 4
 -9 -7 -4 1598.31 192.768 2
 9 -7 3 55.6391 52.4381 4
 9 7 -3 93.9045 63.4304 7
 -9 -7 -3 37.5433 62.9037 2
 -9 7 3 76.0541 55.8678 5
 -9 7 2 747.208 114.706 5
 9 -7 2 863.06 124.325 4
 -9 -7 -2 770.223 141.082 2
 9 7 -2 795.003 125.507 7
 -9 7 1 453.75 95.5787 5
 -9 -7 -1 493.503 117.992 2
 9 -7 1 618.677 105.555 4
 9 7 -1 559.997 104.665 7
 9 7 0 261.662 78.9246 7
 -9 -7 0 267.389 97.3998 2
 -9 7 0 212.576 73.1839 5
 -9 -7 1 621.275 135.607 2
 -9 7 -1 669.087 108.054 5
 9 -7 -1 721.025 115.999 4
 9 7 1 550.156 105.745 7
 -9 -7 2 864.66 159.495 2
 9 7 2 755.941 118.028 7
 -9 7 -2 965.21 128.804 5
 9 -7 -2 1007.07 137.427 4
 -9 -7 3 212.483 101.52 2
 9 -7 -3 219.452 73.7225 4
 9 7 3 157.726 64.449 7
 -9 7 -3 229.014 71.7951 5
 -9 7 -4 1671.53 169.959 5
 9 7 4 1381.29 144.583 7
 -9 -7 4 1437.35 199.318 2
 9 7 5 1115.74 130.351 7
 -9 7 -5 1200.52 143.655 5
 -9 -7 5 1076.6 183.021 2
 -9 7 -6 943.256 127.2 5
 9 -7 -6 1204.38 145.079 4
 -9 -7 6 874.594 171.638 2
 9 7 6 1216.11 136.195 7
 9 7 7 1090.12 123.453 7
 -9 7 -8 530.138 101.571 5
 9 -7 -8 641.717 100.187 3
 -9 -7 8 659.784 152.918 2
 9 7 8 641.307 96.2696 7
 9 -7 -9 1924.96 176.222 4
 9 -7 -9 2283.48 171.975 3
 -9 7 -9 2175.61 190.088 5
 9 7 9 1952.94 165.161 7
 -9 -7 9 1624.36 226.576 2
 9 8 -8 2616.05 210.865 7
 9 8 -8 2470.47 196.592 6
 9 -8 8 2126.3 181.928 4
 -9 8 8 2486.62 199.943 5
 -9 -8 -8 2315.97 208.021 2
 9 -8 7 4461.57 259.326 4
 -9 -8 -7 5359.42 324.984 2
 9 8 -7 5483.07 301.569 7
 -9 8 7 5628.07 291.53 5
 9 8 -7 4214.46 256.641 6
 9 -8 6 3259.29 217.448 4
 -9 -8 -6 2917.8 245.625 2
 -9 8 6 3468.02 229.748 5
 9 8 -6 3058.08 236.427 7
 9 -8 4 1382.21 147.277 4
 9 8 -4 1291.17 150.133 7
 -9 -8 -4 1440.47 179.493 2
 -9 8 4 1046.33 141.339 5
 9 8 -3 3920.22 260.745 7
 -9 8 3 4116.08 251.949 5
 9 -8 2 830.937 122.462 4
 -9 -8 -2 707.366 131.716 2
 -9 8 2 581.222 110.835 5
 9 8 -2 591.307 114.784 7
 -9 8 1 4005.92 248.102 5
 9 -8 1 3523.92 244.107 4
 -9 -8 -1 3634.51 290.532 2
 9 8 -1 4029.16 264.912 7
 9 -8 0 179.445 66.6682 4
 -9 8 0 254.244 74.7977 5
 -9 -8 0 191.785 87.2127 2
 9 8 0 165.04 65.8987 7
 -9 -8 1 3578.89 297.635 2
 9 8 1 3768.18 242.951 7
 -9 8 -1 3597.5 232.968 5
 9 -8 -1 3343.14 232.104 4
 9 8 2 1040.43 135.908 7
 -9 8 -2 974.896 132.838 5
 -9 -8 2 1114.62 173.121 2
 -9 -8 3 2913.39 282.189 2
 9 8 3 3045.55 222.701 7
 -9 8 -3 3026.43 223.541 5
 9 -8 -3 2631.08 211.281 4
 -9 -8 4 1806.08 225.936 2
 9 8 4 1648.49 157.843 7
 -9 8 -4 1490.31 156.371 5
 9 -8 -4 1722.21 173.565 4
 9 -8 -5 5331.62 293.755 4
 9 8 5 5717.79 290.181 7
 -9 8 -5 5087.94 287.172 5
 9 -8 -6 2517.92 214.543 4
 -9 -8 6 2943.45 285.002 2
 9 8 7 4439.72 251.523 7
 -9 -8 7 4398.34 349.584 2
 9 -8 -8 2364.27 176.245 3
 -9 -8 8 2229.72 255.819 2
 -9 8 -8 2738.13 213.558 5
 9 8 8 2651.89 192.512 7
 9 -9 6 358.977 86.7902 4
 -9 9 6 522.594 102.218 5
 -9 -9 -6 377.257 96.9859 2
 9 9 -6 431.862 96.9435 7
 -9 9 5 375.48 86.2437 5
 9 9 -5 368.202 92.1989 7
 9 -9 5 305.475 81.9061 4
 -9 -9 -5 352.312 99.6309 2
 9 9 -4 434.862 95.5813 7
 9 -9 4 318.282 86.3692 4
 -9 9 4 348.944 88.055 5
 -9 -9 -4 312.371 91.5659 2
 -9 9 2 164.093 65.4755 5
 -9 -9 -2 125.391 91.7273 2
 9 -9 2 183.75 71.7965 4
 9 9 -2 259.624 78.6828 7
 -9 -9 -1 157.302 79.6012 2
 -9 9 1 226.451 72.9837 5
 9 9 -1 249.092 77.8571 7
 9 -9 0 553.151 107.593 4
 9 9 0 715.356 115.799 7
 -9 -9 0 534.591 131.188 2
 -9 9 0 756.871 116.305 5
 -9 9 -1 221.854 70.2347 5
 -9 -9 1 154.971 84.9045 2
 9 9 1 293.925 82.9017 7
 9 -9 -1 224.261 72.4729 4
 -9 9 -2 188.517 69.7405 5
 9 -9 -2 255.785 76.7716 4
 9 9 2 68.8387 63.5243 7
 -9 -9 2 253.241 97.2688 2
 9 -9 -3 263.646 83.8246 4
 -9 -9 4 593.912 134.978 2
 -9 9 -4 609.502 107.287 5
 -9 -9 5 273.256 107.517 2
 9 9 5 259.319 73.1262 7
 -9 9 -5 275.484 78.5798 5
 9 -9 -5 176.414 71.7204 4
 -9 9 -6 544.484 105.264 5
 9 -9 -6 599.415 107.702 4
 9 9 6 580.496 97.0903 7
 -9 -9 6 503.008 133.309 2
 9 -9 -7 246.881 78.7329 4
 -9 -9 7 246.268 109.982 2
 9 -10 5 121.971 64.75 4
 9 -10 4 3482.45 238.716 4
 -9 -10 -4 2744.88 239.19 2
 9 10 -4 3008.09 235.483 7
 -9 10 3 96.4572 59.4275 5
 -9 -10 -3 141.62 73.684 2
 9 -10 3 122.044 59.3303 4
 9 10 -3 194.234 75.9998 7
 9 -10 2 2309.05 189.257 4
 9 10 -2 2816.54 226.282 7
 -9 -10 -2 2857.04 268.323 2
 -9 10 2 2857.82 213.437 5
 -9 10 1 -3.08835 45.0919 5
 -9 -10 -1 26.5774 59.4318 2
 9 -10 1 -2.90817 44.3082 4
 9 10 -1 36.1382 47.9674 7
 9 -10 0 2561.08 211.104 4
 9 10 0 2254.78 195.265 7
 -9 -10 0 2094.69 219.936 2
 -9 10 0 2204.47 187.826 5
 -9 10 -1 46.8757 51.3522 5
 -9 -10 1 -9.22994 60.2678 2
 9 -10 -1 3.41511 53.6009 4
 9 10 1 3.24613 48.4373 7
 9 -10 -2 2988.57 224.585 4
 9 10 2 3013.31 223.002 7
 -9 -10 2 2464.9 252.673 2
 -9 10 -2 2480.06 205.835 5
 -9 10 -3 114.278 64.4444 5
 9 -10 -3 119.16 68.9306 4
 -9 -10 3 -4.91948 66.8679 2
 9 10 3 52.1241 49.4923 7
 -9 -10 4 2788.73 270.826 2
 9 -10 -4 3035.17 230.029 4
 9 10 4 3365.64 227.84 7
 -9 10 -5 88.591 58.4337 5
 9 10 5 37.2222 51.3901 7
 9 -10 -5 23.9261 52.6047 4
 -9 -10 5 89.9399 72.9544 2
 -9 11 1 685.198 111.612 5
 9 11 -1 778.495 121.268 7
 9 -11 1 780.067 120.526 4
 -9 -11 -1 797.994 157.927 2
 9 -11 0 294.108 78.6171 4
 9 11 0 306.626 80.2905 7
 -9 -11 0 149.921 98.387 2
 -9 11 0 373.016 89.2846 5
 -9 -11 1 803.665 149.292 2
 -9 11 -1 589.401 114.947 5
 9 11 1 880.286 126.405 7
 9 -11 -2 56.9203 54.0463 4
 -10 0 0 11065.4 499.424 8
 10 0 0 10207.7 390.917 4
 -10 0 0 10223.4 415.698 5
 -10 0 0 10312.7 508.061 2
 -10 0 -1 306.13 84.4683 5
 10 0 1 219.155 70.6799 7
 10 0 -1 204.648 77.413 6
 -10 0 -1 238.915 94.8706 2
 -10 0 1 323.223 110.127 2
 -10 0 1 397.148 88.1242 5
 -10 0 1 232.375 97.2648 8
 10 0 1 291.129 87.3942 4
 10 0 -1 227.358 75.6547 4
 -10 0 2 9249.37 503.176 2
 -10 0 -2 8115.99 436.391 2
 10 0 -2 8467.54 351.219 6
 10 0 2 9616.94 380.322 4
 -10 0 2 9266.14 475.091 8
 10 0 2 8986 369.04 7
 -10 0 -2 10365.3 411.815 5
 -10 0 2 9800.11 392.819 5
 -10 0 3 2210.86 188.95 5
 -10 0 -3 2301.92 201.487 5
 -10 0 3 1755.18 230.275 2
 10 0 -3 2025.53 172.864 4
 10 0 -3 1820.12 167.054 6
 -10 0 3 2094.65 213.46 8
 10 0 3 1878.37 185.499 4
 10 0 3 1678.15 161.445 7
 -10 0 -4 8608.25 372.892 5
 -10 0 4 7876.64 359.563 5
 10 0 4 7289.72 323.119 7
 -10 0 4 7916.99 483.466 2
 10 0 4 8005.86 351.065 4
 10 0 -4 7513.97 325.673 4
 -10 0 4 8913.47 440.546 8
 -10 0 -5 5360.49 407.161 3
 -10 0 5 5884.37 352.288 8
 -10 0 5 5097.12 386.399 2
 10 0 5 5128.96 263.181 7
 -10 0 -5 4948.97 284.462 5
 10 0 -6 7165.85 333.04 6
 -10 0 6 7953.38 420.409 8
 -10 0 -6 6667.72 341.22 5
 -10 0 -6 6817.57 455.33 3
 -10 0 6 6552.2 431.897 2
 10 0 7 3113.93 161.012 1
 -10 0 7 3283.53 259.377 8
 -10 0 -7 3034.86 229.454 5
 10 0 -7 2567.87 195.315 4
 -10 0 -7 3421.12 317.602 3
 10 0 7 2592.1 189.295 7
 -10 0 7 2617.17 283.251 2
 10 0 8 5379.59 197.874 1
 10 0 -8 4547.03 278.482 6
 -10 0 8 5318.93 322.937 8
 -10 0 -8 4483.43 271.253 5
 10 0 -8 5357.42 287.653 4
 -10 0 -8 4883.97 357.737 3
 10 0 8 4545.01 249.188 7
 -10 0 8 5479.76 407.054 2
 10 0 9 713.415 80.2152 1
 10 0 -9 1201.23 161.329 6
 -10 0 9 840.092 133.53 8
 -10 0 -9 623.952 109.117 5
 10 0 -9 794.341 120.713 4
 -10 0 -9 751.537 151.33 3
 10 0 9 660.254 99.7114 7
 -10 0 9 737.84 158.165 2
 10 0 10 2068.34 167.64 1
 10 0 -10 3432.2 230.439 4
 -10 0 -10 3125.12 272.683 3
 -10 0 -10 2424.58 191.047 5
 -10 0 10 3080.65 238.345 8
 10 0 -10 2688.61 205.752 6
 -10 0 10 2573.13 275.148 2
 -10 1 10 265.382 109.923 2
 10 -1 10 289.612 75.2223 7
 -10 1 10 325.068 88.4418 8
 -10 -1 -10 352.291 103.466 3
 -10 -1 -10 319.255 81.0098 5
 10 -1 10 337.976 83.4114 1
 10 1 -10 175.511 75.9291 6
 10 1 -10 484.799 92.2193 4
 -10 -1 -9 652.255 108.201 5
 10 -1 9 686.886 87.181 1
 10 1 -9 871.211 117.478 4
 10 -1 9 404.267 82.5489 7
 -10 1 9 782.243 164.874 2
 10 1 -9 300.605 103.996 6
 -10 -1 -9 854.042 152.543 3
 -10 1 9 717.439 121.985 8
 -10 -1 -8 756.196 116.737 5
 -10 1 8 942.394 178.204 2
 10 -1 8 876.779 86.3745 1
 -10 1 8 912.469 139.633 8
 10 -1 8 675.426 101.778 7
 10 1 -8 859.03 122.997 6
 10 1 -8 1212.72 143.408 4
 -10 -1 -8 943.699 174.88 3
 -10 1 7 1690.37 173.107 5
 -10 -1 -7 2966.79 227.446 5
 -10 1 7 3926.46 340.446 2
 10 -1 7 3683.14 168.478 1
 -10 1 7 3635.56 263.261 8
 10 -1 7 3128.32 210.073 7
 10 1 -7 2291.96 198.734 6
 10 1 -7 3176.85 217.209 4
 -10 -1 -7 3581.17 311.151 3
 -10 1 6 2636.51 235.966 5
 -10 -1 -6 2784.55 222.689 5
 -10 -1 -6 2868.83 294.442 3
 10 1 -6 3399.73 237.343 6
 -10 1 6 2697.17 283.445 2
 10 -1 6 2279.78 183.686 7
 10 1 -6 3287.37 220.196 4
 -10 1 6 2281.15 216.947 8
 10 1 -5 6628.61 322.249 4
 -10 -1 -5 7719.54 372.648 5
 -10 -1 -5 7242.57 472.341 3
 10 -1 5 6534.94 316.491 4
 10 1 -5 7731.64 347.608 6
 -10 1 5 6878.99 448.057 2
 -10 1 5 7649.4 347.24 5
 10 1 -5 7722.63 367.221 7
 -10 1 5 8269.36 454.563 8
 10 -1 5 7241.83 343.432 7
 -10 -1 -4 2487.17 222.188 5
 10 1 -4 2920.87 218.536 6
 -10 1 4 2787.29 290.395 2
 10 1 -4 2391.36 207.807 7
 -10 -1 -4 2527.68 248.524 2
 10 1 -4 2274.9 190.983 4
 10 -1 4 2675.53 203.657 4
 -10 1 4 3225.73 264.329 8
 10 -1 4 3229.76 220.902 7
 -10 1 3 15221.6 660.376 2
 -10 -1 -3 20060.3 574.355 5
 -10 1 3 17751.7 527.384 5
 10 1 -3 18902.6 524.494 6
 -10 -1 -3 18788.9 646.044 2
 10 1 -3 17195.5 498.424 4
 10 -1 3 15074.6 471.228 7
 10 -1 3 19673.1 556.386 4
 -10 1 2 4688.79 270.495 5
 -10 -1 -2 4739.83 289.679 5
 10 1 -2 5512.51 301.206 7
 -10 -1 -2 3933.3 306.73 2
 10 1 -2 4450.41 256.028 4
 -10 1 2 4788.89 319.032 8
 -10 1 2 4596.21 356.464 2
 10 -1 2 4625.16 262.323 4
 10 -1 1 33501.4 728.782 4
 -10 1 1 31643.2 859.789 8
 -10 -1 -1 31557.5 851.918 2
 -10 1 1 34816.7 921.806 2
 -10 1 1 30983.3 684.158 5
 -10 -1 -1 32133.1 736.677 5
 10 1 -1 28095.5 631.451 6
 10 1 -1 33263.2 789.626 4
 10 1 -1 26518 629.434 7
 10 1 0 7413.21 339.78 4
 10 -1 0 9749.32 377.895 4
 10 1 0 7071.85 335.347 7
 -10 1 0 8200.51 361.701 5
 10 1 0 8709.79 361.833 6
 -10 -1 0 6671.68 416.269 2
 -10 1 0 7674.45 425.644 8
 10 1 1 26819.5 684.945 4
 10 1 1 24474.3 619.649 7
 10 -1 -1 35677.9 732.365 6
 -10 -1 1 32720.2 861.625 8
 -10 -1 1 26682.7 804.849 2
 -10 1 -1 30193.6 703.151 5
 10 -1 -1 22499.7 675.423 4
 10 1 2 5483.06 285.691 7
 10 -1 -2 6313.23 319.333 6
 -10 -1 2 5189.65 369.894 2
 -10 1 -2 6355.14 326.768 5
 10 -1 -2 6688.32 313.911 4
 10 1 3 13444.4 442.699 7
 10 -1 -3 19623.6 524.792 6
 -10 1 -3 23793.1 635.946 5
 -10 -1 3 17422.7 684.511 2
 -10 -1 3 22221.5 689.874 8
 10 -1 -3 15292.5 465.332 4
 -10 1 -4 3877.83 249.85 5
 10 -1 -4 4319.22 254.267 4
 10 1 4 4278.47 248.989 7
 -10 -1 4 3681.34 326.515 2
 10 1 5 6496.35 299.5 7
 -10 -1 5 7579.5 408.933 8
 -10 1 -6 4191.55 361.206 3
 -10 -1 6 4370.92 314.007 8
 -10 -1 6 3087.32 305.696 2
 10 -1 -6 3112.45 222.028 6
 -10 1 -6 3392.31 234.5 5
 10 -1 -6 2873.34 215.193 4
 10 1 6 3081.27 211.473 7
 -10 1 -7 2969.31 295.484 3
 -10 -1 7 3995.09 297.505 8
 -10 -1 7 2740.24 286.408 2
 10 -1 -7 2747.02 209.701 6
 -10 1 -7 2905.51 225.82 5
 10 -1 -7 1458.92 168.086 4
 10 1 7 2520.08 193.398 7
 -10 -1 8 1100.41 191.41 2
 10 1 8 1230.11 101.275 1
 -10 -1 8 1214.37 188.797 8
 -10 1 -8 1081.99 138.519 5
 10 1 8 1144.47 127.498 7
 10 -1 -8 1584.06 155.542 4
 -10 1 -8 1122.92 191.646 3
 10 1 9 507.734 68.4735 1
 -10 -1 9 634.899 125.426 8
 10 -1 -9 541.206 95.8253 4
 -10 1 -9 694.602 110.676 5
 -10 -1 9 611.155 148.819 2
 10 1 9 524.086 89.5415 7
 -10 1 -9 694.95 151.559 3
 10 -1 -10 357.166 90.2108 6
 -10 1 -10 240.311 77.3384 5
 10 -1 -10 360.855 82.3991 4
 -10 -1 10 336.194 96.935 8
 10 1 10 419.947 70.6146 1
 -10 1 -10 348.65 110.474 3
 10 1 10 277.551 66.6573 7
 -10 2 10 1577.13 224.999 2
 -10 -2 -10 1742.27 205.052 3
 -10 2 10 1537.31 174.358 8
 10 2 -10 1236.88 142.149 4
 10 -2 10 1770.22 183.689 1
 -10 -2 -10 1452.21 162.92 5
 -10 2 9 2106.68 200.596 8
 -10 2 9 1613.02 232.837 2
 -10 -2 -9 1757.34 206.046 3
 10 2 -9 2786.06 203.459 4
 10 2 -9 903.959 135.571 6
 -10 -2 -9 1606.76 170.652 5
 -10 2 8 2280.54 270.988 2
 -10 2 8 2285.95 194.695 5
 -10 -2 -8 1713.81 175.27 5
 10 -2 8 1971.6 184.93 4
 -10 -2 -7 5794.74 391.655 3
 -10 2 7 5367.94 409.035 2
 -10 2 7 5525.72 320.754 8
 10 -2 7 5212.09 294.938 4
 10 -2 7 4886.44 193.83 1
 10 2 -7 5376.42 292.773 6
 -10 2 7 5365.14 291.373 5
 10 2 -7 4218.64 265.2 4
 -10 -2 -7 5113.48 294.603 5
 10 2 -7 4451.18 283.674 7
 10 -2 6 2909.74 230.633 4
 -10 2 6 3126.21 308.943 2
 -10 2 6 3464.01 255.827 8
 -10 -2 -6 2821.86 292.114 3
 10 2 -6 2983.17 214.199 4
 -10 2 6 3158.4 250.202 5
 10 -2 6 2648.26 146.112 1
 10 2 -5 8048.69 360.046 7
 -10 2 5 7477.74 469.689 2
 -10 -2 -5 7964.3 414.031 2
 -10 2 5 8983.88 377.045 5
 -10 -2 -5 8762.3 506.918 3
 10 2 -5 9381.73 391.012 4
 -10 -2 -5 8739.76 395.515 5
 10 2 -4 3028.81 221.102 4
 -10 2 4 3585.37 252.029 5
 -10 -2 -4 3405.62 331.126 3
 -10 -2 -4 3648.07 261.371 5
 -10 2 4 2969.21 311.154 2
 10 2 -4 2698.18 219.75 7
 -10 -2 -4 2813.04 255.514 2
 10 -2 4 2942.15 212.046 4
 -10 2 3 6192.09 365.922 8
 10 -2 3 5574.13 303.06 4
 -10 -2 -3 7075.12 362.639 5
 10 2 -3 6602.4 332.479 7
 10 2 -3 5273.49 280.564 6
 -10 2 3 6259.3 316.042 5
 10 2 -3 5463.47 289.877 4
 -10 -2 -3 5410.25 348.542 2
 10 -2 2 1543.3 157.57 4
 -10 2 2 1539.04 189.406 8
 10 2 -2 1634.06 162.606 4
 10 2 -2 1348.9 150.412 6
 -10 -2 -2 1712.56 204.858 2
 10 2 -2 1785.24 173.532 7
 -10 2 2 1630.05 162.998 5
 -10 2 1 7692.87 344.059 5
 -10 -2 -1 7459.4 416.275 2
 -10 2 1 6315.27 403.876 8
 10 2 -1 8599.22 364.092 7
 10 2 -1 6536.19 307.448 6
 10 -2 1 7123.4 332.293 4
 -10 -2 0 271.359 108.456 2
 10 -2 0 320.971 86.3721 4
 -10 2 0 288.212 79.7328 5
 10 2 0 250.045 84.2151 6
 -10 2 0 476.942 127.927 8
 10 2 0 269.088 73.8694 7
 -10 -2 1 7066.67 420.907 2
 10 -2 -1 5214.09 286.467 4
 -10 -2 1 8364.77 434.826 8
 -10 2 -1 7710.9 356.478 5
 10 2 1 10513.2 397.421 7
 -10 -2 2 1445.16 203.421 2
 10 -2 -2 1363.19 154.044 6
 10 -2 -2 1920.4 172.321 4
 -10 -2 2 1617.36 205.302 8
 -10 2 -2 1445.93 158.119 5
 10 2 2 1147.5 144.186 7
 -10 -2 3 7226.66 433.606 2
 10 -2 -3 6851.47 319.044 6
 -10 2 -3 6994.72 334.855 5
 10 -2 -3 6562.51 309.619 4
 10 2 3 7663.7 332.229 7
 -10 2 -4 3315.87 236.23 5
 10 2 4 2456.39 196.738 7
 -10 -2 4 3181.87 300.192 2
 -10 -2 5 9261.22 442.269 8
 10 -2 -5 8770.3 347.485 4
 -10 2 -5 10350.1 399.574 5
 -10 -2 5 9604.37 519.062 2
 10 -2 -5 8159.68 344.851 6
 10 -2 -6 2952.04 215.276 6
 -10 -2 6 2979.04 298.118 2
 -10 -2 6 2843.55 258.909 8
 -10 2 -6 3742.73 245.813 5
 10 -2 -6 2831.44 211.477 4
 10 2 6 2750.32 194.331 7
 -10 -2 7 6188.01 368.408 8
 -10 2 -7 6031.01 446.401 3
 -10 -2 7 5080.22 387.041 2
 10 2 7 5607.56 286.278 7
 10 -2 -7 5411.83 283.662 6
 10 2 8 2274.25 175.523 7
 -10 -2 9 2102.14 247.703 2
 -10 2 -9 1985.87 176.966 5
 10 2 9 1678.13 148.989 7
 -10 2 -9 2104.45 241.095 3
 10 -2 -9 2013.38 171.453 4
 -10 -2 9 2219.7 222.028 8
 10 -2 -9 2059.2 186.143 6
 10 2 9 2080.23 124.061 1
 -10 -2 10 1459.87 217.359 2
 10 -2 -10 1270.96 139.961 4
 -10 2 -10 1596.9 162.027 5
 -10 -2 10 1799.78 202.24 8
 10 2 10 1342.44 137.904 7
 10 -2 -10 1472.67 159.152 6
 10 2 10 1555.38 112.194 1
 -10 2 -10 1634.92 202.677 3
 -10 3 10 1942.34 177.009 5
 10 3 -10 2134.38 189.284 4
 10 3 -9 140.612 64.3561 7
 -10 3 9 125.463 91.0252 2
 -10 3 9 110.766 71.9524 8
 10 -3 9 135.654 72.0139 1
 -10 3 9 87.1023 54.3032 5
 10 -3 9 151.435 64.9508 4
 10 3 -9 107.45 60.9414 4
 -10 -3 -9 106.942 83.5033 3
 10 3 -9 151.167 61.341 6
 -10 3 8 2632.19 223.974 8
 -10 -3 -8 2607.2 250.49 3
 10 3 -8 1862.2 194.253 6
 10 3 -8 2846.69 214.72 4
 10 3 -8 2634.29 213.048 7
 -10 3 8 2414.55 282.037 2
 -10 3 7 -6.08024 79.4031 2
 -10 -3 -7 64.9074 59.2307 2
 10 -3 7 73.9972 59.0447 4
 10 3 -7 15.5133 48.6971 4
 -10 -3 -7 89.7823 91.9915 3
 -10 3 7 39.1401 47.2549 5
 10 3 -7 98.4725 69.3457 6
 10 -3 7 67.6548 48.9049 1
 10 3 -7 47.352 47.7091 7
 -10 3 6 6082.99 337.149 8
 -10 3 6 6763.23 326.139 5
 10 -3 6 5812.83 212.824 1
 -10 -3 -6 6075.94 356.047 2
 10 3 -6 6804.07 344.569 7
 -10 -3 -6 7132.25 442.941 3
 10 -3 6 7022.78 348.856 4
 10 -3 5 239.074 73.5586 4
 10 3 -5 174.035 72.2214 4
 10 3 -5 195.386 78.4314 6
 -10 -3 -5 183.89 106.599 3
 -10 3 5 254.223 85.6225 8
 -10 3 5 179.703 76.8901 5
 10 -3 5 234.316 53.7492 1
 -10 -3 -4 14089.2 562.2 2
 10 3 -4 13910.4 485.248 7
 -10 -3 -3 1179.72 213.843 3
 10 3 -3 995.558 139.524 7
 -10 -3 -3 1096.68 168.451 2
 10 3 -3 1141.99 136.333 6
 -10 3 3 872.197 144.719 5
 10 -3 3 1398.9 156.601 4
 -10 3 3 1126.46 163.518 8
 10 -3 2 17691.7 502.619 4
 -10 -3 -2 16964.9 735.771 3
 10 3 -2 17932.5 512.565 6
 10 3 -2 16362.7 516.595 7
 -10 3 2 16949.7 505.957 5
 10 3 -1 3334.7 236.194 7
 -10 3 1 2334.44 236.806 8
 10 -3 1 2528.36 202.716 4
 -10 -3 -1 2630.67 251.62 2
 10 3 -1 3273.91 231.815 6
 -10 3 1 2810.97 211.788 5
 -10 3 0 17331.9 504.694 5
 -10 3 0 18968.4 676.932 8
 10 3 0 18614.8 525.564 7
 10 3 0 13608.6 462.984 6
 -10 -3 0 14584.3 602.497 2
 -10 3 -1 3197.04 277.459 8
 -10 -3 1 2568.27 260.659 2
 -10 3 -1 3117.83 230.796 5
 10 3 2 16247.6 495.206 7
 -10 -3 2 15184.7 609.521 2
 -10 -3 3 643.102 145.807 2
 -10 3 -3 822.615 133.952 5
 10 3 3 783.655 116.391 7
 10 -3 -4 14415.9 452.334 4
 -10 3 -4 17503.4 529.354 5
 10 -3 -5 107.552 71.5764 6
 -10 -3 5 192.156 105.202 2
 10 -3 -5 127.87 67.4677 4
 -10 -3 5 105.904 84.504 8
 10 3 5 105.981 51.8652 7
 -10 3 -5 103.584 65.9777 5
 10 -3 -6 7661.51 352.889 6
 -10 -3 6 8270.24 488.418 2
 10 3 6 7425.19 317.426 7
 10 -3 -6 7492.8 321.381 4
 -10 -3 6 8554.71 429.853 8
 -10 3 -7 85.5277 59.8359 5
 10 -3 -7 132.456 63.1536 4
 10 -3 -7 65.0353 61.0405 6
 10 3 7 44.4221 45.8544 7
 -10 3 -7 27.8725 102.953 3
 -10 -3 7 103.36 70.2827 8
 -10 -3 7 184.668 114.258 2
 -10 -3 8 2922.2 290.433 2
 -10 3 -8 3564.84 244.682 5
 -10 3 -8 3127.38 304.119 3
 -10 -3 8 2793.87 254.915 8
 10 -3 -8 3278.09 223.525 4
 10 3 8 2542.43 190.808 7
 10 3 9 233.483 54.5154 1
 10 -3 -9 277.497 80.0783 4
 10 -3 -9 70.5078 59.3057 6
 -10 -3 9 179.277 86.5656 8
 -10 -3 9 215.02 103.332 2
 -10 3 -9 205.299 67.2546 5
 -10 3 -9 157.085 94.3903 3
 10 -4 9 1746.37 186.817 1
 10 4 -9 1725.76 176.113 7
 -10 -4 -9 1803.39 207.575 3
 10 4 -9 1692.89 156.991 6
 10 -4 9 1888.62 173.754 4
 -10 4 9 1701.15 170.14 5
 -10 -4 -8 1535.95 197.995 3
 10 4 -8 1437.19 158.554 7
 -10 4 8 1470.68 156.473 5
 -10 -4 -8 1337.5 173.782 2
 10 -4 8 1472.69 155.473 4
 -10 4 8 1355.22 163.87 8
 -10 -4 -7 3307.11 281.603 3
 10 4 -7 3717.58 255.867 7
 -10 4 7 3675.11 237.893 5
 -10 -4 -7 3350.84 269.329 2
 10 -4 7 3369.28 230.251 4
 -10 4 7 3767.1 266.54 8
 -10 4 6 1674.54 180.777 8
 10 -4 6 1059.08 150.468 4
 10 -4 6 2700.19 186.95 1
 10 4 -6 1965.91 184.544 7
 -10 4 6 1591.73 166.803 5
 10 4 -6 369.161 135.951 6
 -10 -4 -6 1485.74 208.476 3
 -10 -4 -6 1597.44 188.6 2
 -10 4 5 5387.27 319.242 8
 10 -4 5 5774.54 291.914 4
 -10 -4 -5 5231.34 335.901 2
 10 4 -5 5660.76 305.04 7
 -10 -4 -5 5518.55 413.203 3
 -10 4 5 6332.5 314.506 5
 10 -4 5 4551.79 195.247 1
 10 4 -4 3033.01 223.088 6
 -10 4 4 2804.44 209.063 5
 10 4 -4 3098.83 227.628 7
 10 -4 4 2963.37 209.041 4
 -10 -4 -4 3105.24 265.676 2
 -10 4 4 2252.23 218.099 8
 10 -4 4 2600.16 145.252 1
 -10 4 3 4850.78 320.641 5
 10 -4 3 5180.71 215.219 1
 -10 -4 -3 5319.89 409.513 3
 10 4 -2 4516.95 264.813 6
 -10 -4 -2 4594.69 387.715 3
 -10 -4 -2 4525.77 331.498 2
 -10 4 2 4640.14 328.889 8
 -10 -4 -1 3120.36 334.989 3
 10 4 -1 3969.55 245.429 6
 -10 4 1 4243.33 303.584 8
 -10 -4 -1 3869.77 300.407 2
 10 4 -1 3334.37 237.505 7
 -10 4 0 3447.08 228.172 5
 10 4 0 3336.54 233.434 7
 -10 -4 0 2647.42 254.769 2
 -10 4 0 2520.92 268.314 8
 -10 -4 1 3730.91 324.386 2
 10 4 1 4417.06 265.663 7
 10 -4 -3 9575.76 376.98 4
 -10 4 -3 8737.2 375.381 5
 10 4 4 2452.29 194.095 7
 -10 -4 4 2832.29 266.873 8
 10 -4 -4 2553.98 212.64 6
 -10 -4 4 2256.57 254.018 2
 -10 4 -5 7034.5 335.598 5
 10 -4 -5 4828.6 280.335 4
 10 4 5 7092.08 321.337 7
 -10 -4 5 6206.77 404.006 8
 10 -4 -5 4997.45 305.68 6
 -10 -4 5 6651.63 432.49 2
 -10 4 -6 1693.66 166.875 5
 10 -4 -6 1310.82 151.043 6
 10 -4 -6 1421.31 149.881 4
 10 4 6 1536 147.484 7
 -10 -4 6 1610.41 219.111 2
 -10 -4 7 4764.49 330.317 8
 10 -4 -7 3678.53 247.123 6
 10 4 8 1921.45 173.873 7
 -10 -4 8 1834.27 212.508 8
 10 -4 -8 1853.56 175.928 6
 10 -4 -8 1640.85 158.928 4
 -10 -4 8 2147.14 268.907 2
 -10 4 -8 2168.65 254.909 3
 -10 4 -8 1769.19 175.003 5
 -10 4 -9 1616.98 166.371 5
 -10 4 -9 2184.04 247.568 3
 10 4 9 2338.57 133.741 1
 10 4 9 1871.81 156.069 7
 10 -4 -9 2145.07 188.192 4
 -10 -4 9 2234.26 259.963 2
 10 -4 -9 2096.86 190.557 6
 -10 -5 -9 2842.54 246.385 2
 10 -5 9 1958.39 198.275 1
 -10 -5 -8 1336.05 186.73 3
 10 -5 8 1280.67 158.543 1
 10 5 -8 1780.44 163.753 6
 -10 5 8 1512.09 161.49 5
 -10 -5 -8 1503.45 178.384 2
 10 5 -8 1541.54 162.037 7
 10 -5 8 1177.42 142.469 4
 -10 5 8 1617.94 174.979 8
 -10 5 7 3889.16 271.02 8
 10 -5 7 4827.34 272.221 4
 -10 -5 -7 3150.84 288.463 3
 10 5 -7 4912.06 288.608 7
 -10 5 7 4146.76 250.874 5
 -10 -5 -7 3950.53 284.536 2
 10 -5 6 1780.77 172.642 4
 -10 -5 -6 2029.76 206.981 2
 10 5 -6 2080.38 201.838 6
 -10 5 6 1929.04 180.207 5
 10 5 -6 2090.81 191.931 7
 -10 -5 -6 1986.76 229.978 3
 -10 5 6 2251.79 210.082 8
 -10 5 5 3155.3 252.181 8
 10 -5 5 3257.98 221.825 4
 -10 5 5 3821.9 253.638 5
 -10 -5 -5 3094.04 285.76 3
 -10 -5 -5 2659.33 250.929 2
 10 5 -5 3791.84 248.459 7
 10 5 -4 3713.73 247.761 7
 -10 -5 -4 3141.5 298.718 3
 -10 5 4 3587.78 236.939 5
 -10 5 4 3720.89 277.478 8
 -10 -5 -4 2835.9 255.348 2
 10 5 -3 2287.44 201.12 7
 -10 -5 -3 1988.09 255.386 3
 -10 5 3 3107.97 232.205 5
 -10 -5 -3 2327.33 229.83 2
 10 5 -3 3275.05 234.428 6
 10 -5 3 3228.85 224.474 4
 -10 5 2 8475.15 443.349 8
 10 5 -2 7698.15 356.677 6
 10 5 -2 7623.97 350.61 7
 10 -5 2 8110.65 365.433 4
 -10 5 2 6853.7 328.771 5
 10 -5 1 1506.53 158.839 4
 10 5 -1 1216.57 146.05 6
 -10 5 1 1159.13 141.544 5
 10 -5 0 7707.23 346.427 4
 -10 5 0 7234.75 333.528 5
 10 5 0 7331.68 337.101 7
 -10 -5 0 7671.32 422.501 2
 -10 5 -1 1362.95 149.882 5
 10 5 1 1187.81 141.774 7
 -10 -5 1 1123.55 181.535 2
 10 -5 -2 8492.72 353.274 4
 -10 -5 2 8054.88 455.421 2
 -10 5 -2 7625.8 353.468 5
 10 5 2 8582.16 362 7
 -10 -5 3 2517.2 257.888 2
 -10 5 -3 2561.71 205.352 5
 10 5 3 2204.18 198.895 7
 10 -5 -4 4563.89 267.281 4
 -10 -5 4 4167.03 329.262 2
 -10 5 -4 4191.03 257.746 5
 10 5 5 4008.55 240.547 7
 -10 5 -5 4354.02 267.954 5
 -10 -5 5 3356.12 295.728 8
 -10 -5 5 3460.67 308.742 2
 -10 -5 6 2317.71 248.432 8
 -10 5 -6 2604.22 202.714 5
 -10 -5 6 1692.56 238.109 2
 10 5 6 2351.07 181.262 7
 10 -5 -6 2477.5 215.086 6
 10 -5 -6 2341.47 189.345 4
 -10 5 -7 4893.83 272.547 5
 10 -5 -7 4221.22 248.551 4
 -10 5 -7 5197.2 400.042 3
 -10 -5 7 5368.21 387.605 8
 10 5 7 3683.55 221.032 7
 -10 -5 7 4202.75 341.8 2
 -10 -5 8 1567.54 217.953 2
 10 5 8 2021.68 172.294 7
 -10 5 -8 1994.95 248.657 3
 -10 5 -8 1931.34 182.949 5
 -10 -5 8 1681.73 216.433 8
 10 -5 -8 1864.97 197.895 4
 -10 -5 9 3742.63 315.413 8
 -10 6 8 1036.94 144.446 8
 10 -6 8 1130.67 135.875 4
 -10 -6 -8 975.312 149.177 2
 10 6 -8 1233.23 139.463 6
 -10 6 8 1134.44 137.759 5
 10 6 -8 945.965 129.756 7
 -10 -6 -8 1086.05 168.728 3
 10 -6 7 1097.07 134.26 4
 -10 -6 -7 1009.3 147.187 2
 10 6 -7 372.759 116.145 6
 10 6 -7 1047.23 136.961 7
 -10 6 7 407.131 105.22 8
 -10 -6 -7 984.748 181.728 3
 10 6 -6 2252.08 195.93 7
 -10 6 6 2487.35 207.169 5
 -10 -6 -6 2274.09 215.635 2
 10 -6 6 2189.51 182.63 4
 10 6 -5 244.713 73.2391 7
 -10 -6 -5 257.084 89.1623 2
 10 6 -5 113.091 73.0878 6
 -10 6 5 279.018 92.0117 8
 -10 6 4 3679.97 284.886 8
 -10 -6 -4 4045 299.575 2
 10 6 -4 3947.17 272.506 6
 10 6 -4 3873.01 260.805 7
 10 -6 4 4333.98 252.998 4
 -10 6 4 4154.09 252.354 5
 10 6 -3 6.49338 52.4068 6
 -10 6 3 3.08277 48.8478 5
 10 -6 3 -19.7439 51.3629 4
 10 6 -3 -9.98674 49.6726 7
 10 6 -2 6017.44 313.885 7
 -10 -6 -2 5531.5 351.512 2
 -10 6 2 5045 285.592 5
 -10 -6 -1 81.9628 70.0802 2
 -10 6 1 73.4037 59.9495 5
 10 -6 1 76.709 57.3454 4
 10 6 -1 45.7184 55.0561 7
 10 6 0 5178.02 284.923 7
 -10 -6 0 5877.44 377.061 2
 10 -6 0 5554.92 294.555 4
 -10 6 0 5970.96 302.527 5
 -10 -6 1 4.64316 77.6259 2
 10 -6 -1 75.4354 64.176 4
 10 6 1 96.5907 60.2774 7
 -10 6 -1 194.152 68.8025 5
 10 6 2 5160.16 285.533 7
 -10 -6 2 4825.83 360.882 2
 -10 6 -2 5494.36 301.666 5
 10 -6 -3 98.6541 62.1998 4
 10 6 3 38.3672 52.1863 7
 -10 -6 3 55.0919 83.7313 2
 -10 6 -3 150.456 68.4818 5
 10 6 4 4377.85 255.588 7
 -10 6 -4 4519.07 272.513 5
 -10 -6 4 3966.69 320.943 2
 10 -6 -6 2532.31 200.278 4
 -10 -6 6 2433.05 263.316 2
 10 6 6 2718.11 194.891 7
 -10 6 -6 2696.22 205.233 5
 10 -6 -7 1024.56 130.333 4
 10 6 7 1216.57 132.086 7
 -10 6 -7 1068.85 133.028 5
 -10 -6 7 1115.27 185.721 2
 -10 6 -7 1192.46 206.665 3
 -10 -6 8 1011.07 178.592 8
 10 6 8 1341.1 142.095 7
 -10 -6 8 1232.2 192.494 2
 10 -6 -8 736.281 116.422 4
 -10 6 -8 1425.96 157.018 5
 10 7 -7 991.191 173.791 6
 10 -7 7 2830.45 208.333 4
 -10 -7 -7 2771.48 234.217 2
 10 7 -7 3112.19 229.439 7
 -10 7 7 3414.47 230.575 5
 -10 7 7 1217.19 167.749 8
 10 -7 6 1663.97 165.567 4
 -10 -7 -6 2245.2 221.42 2
 10 7 -6 2349.59 198.475 7
 -10 7 6 2005.2 185.123 5
 -10 7 5 4022.91 259.312 5
 10 -7 5 3996.65 243.08 4
 10 7 -5 4151.62 257.85 7
 -10 7 4 1573.85 159.39 5
 -10 -7 -4 1337.39 192.038 2
 10 7 -4 1545.93 170.181 7
 10 -7 4 1411.36 150.232 4
 -10 -7 -3 2722.33 260.615 2
 10 7 -3 2974.56 228.838 7
 10 7 -2 489.904 95.8144 7
 -10 7 2 467.729 96.8659 5
 10 -7 2 392.756 90.2052 4
 -10 -7 -2 489.48 118.689 2
 10 7 -1 1858.37 177.487 7
 -10 -7 -1 1606.08 198.866 2
 10 -7 1 1857.99 182.255 4
 -10 7 1 1873.63 172.405 5
 -10 -7 0 32.0526 71.8674 2
 10 -7 0 -2.92468 48.8956 4
 -10 7 0 5.84768 48.8816 5
 10 7 0 3.04346 45.8937 7
 10 7 1 2369.18 195.713 7
 10 -7 -1 1989.94 181.198 4
 -10 -7 1 1898.59 219.58 2
 -10 7 -1 2302.25 193.564 5
 -10 7 -2 386.766 95.004 5
 -10 -7 2 474.807 121.93 2
 10 7 2 473.039 91.9287 7
 10 -7 -2 290.825 86.3237 4
 10 -7 -3 4584.48 274.31 4
 -10 7 -4 1553.22 162.813 5
 10 -7 -4 1843.9 174.068 4
 -10 -7 4 1783.73 226.564 2
 10 7 4 1519.21 152.239 7
 10 7 5 4447.56 251.963 7
 -10 7 -5 4680.97 276.645 5
 -10 -7 5 4150.34 331.114 2
 10 7 6 2338.09 182.963 7
 -10 -7 6 2221.3 246.277 2
 -10 7 -6 2616.47 203.668 5
 -10 7 -7 3082.08 324.557 3
 -10 -7 7 2996.34 284.748 2
 -10 7 -7 2368.67 193.858 5
 10 7 7 3125.6 205.019 7
 10 -8 5 123.944 69.8614 4
 -10 8 5 189.688 71.8624 5
 10 8 -5 244.951 78.117 7
 -10 -8 -5 215.07 84.2558 2
 10 8 -4 1671.71 179.387 7
 -10 8 4 1291.65 156.424 5
 -10 -8 -4 1315.35 174.868 2
 10 -8 4 1326.17 147.737 4
 10 8 -3 851.738 122.735 7
 -10 -8 -3 777.8 145.91 2
 10 -8 3 639.074 106.087 4
 -10 8 3 661.931 113.055 5
 10 -8 2 1599.68 160.401 4
 -10 -8 -2 1770.52 204.63 2
 10 8 -2 1634.25 167.835 7
 -10 8 2 1503.37 156.132 5
 10 -8 1 1839.45 176.314 4
 -10 -8 -1 1687.26 198.216 2
 10 8 -1 2019.4 187.079 7
 -10 8 1 1676.99 164.741 5
 10 -8 0 2157.24 187.706 4
 -10 -8 0 2478.2 249.084 2
 10 8 0 1768.65 169.605 7
 -10 8 0 2486.67 197.401 5
 10 -8 -1 1488.17 159.495 4
 -10 8 -1 1787.03 172.71 5
 -10 -8 1 1347.77 191.412 2
 10 8 1 1598.48 165.13 7
 10 -8 -2 1734.27 172.053 4
 -10 -8 2 1745.28 215.652 2
 -10 8 -2 1702.37 171.479 5
 10 8 2 1896.92 174.64 7
 -10 -8 3 391.523 113.368 2
 10 8 3 157.949 73.389 7
 -10 8 -3 728.285 113.96 5
 10 -8 -3 517.103 106.652 4
 -10 -8 4 1315 197.25 2
 10 8 4 1494.21 153.398 7
 -10 8 -4 1666.81 166.671 5
 10 -8 -5 177.331 69.157 4
 10 8 5 94.6119 58.7218 7
 -10 -8 5 185.914 98.7807 2
 -10 -9 -3 993.986 156.666 2
 -10 9 3 884.665 125.547 5
 10 9 -3 1115.73 141.023 7
 10 -9 3 1045.06 131.089 4
 10 9 -2 2430.88 209.068 7
 10 -9 2 1925.34 169.269 4
 -10 9 2 2243.9 191.374 5
 10 -9 1 68.3436 57.8473 4
 -10 -9 -1 127.905 81.9561 2
 -10 9 1 134.862 62.9051 5
 10 9 -1 96.8315 53.0992 7
 10 -9 0 1242.86 149.728 4
 -10 -9 0 1205.68 179.3 2
 -10 9 0 1231.63 142.563 5
 10 9 0 1072.5 137.558 7
 10 9 1 143.338 65.0531 7
 10 -9 -1 184.163 69.7486 4
 -10 -9 1 264.732 96.9602 2
 10 9 2 1840.15 176.971 7
 -10 -9 2 1426.65 194.467 2
 -10 9 -2 2037.91 184.287 5
 10 -9 -2 1655.97 168.843 4
 10 -9 -3 1210.32 147.642 4
 -10 9 -3 1096.42 157.691 5
 10 9 3 1334.22 148.014 7
 -10 -9 3 1154.2 178.877 2
 -11 0 0 3.55154 43.7278 5
 -11 0 1 149.793 82.0673 8
 11 0 -1 152.285 63.2376 4
 -11 0 1 152.851 68.7674 5
 -11 0 2 342.496 112.949 2
 11 0 -2 223.895 82.3036 6
 -11 0 -2 316.613 88.9609 5
 11 0 -2 412.458 93.4626 4
 -11 0 2 411.398 121.424 8
 -11 0 3 1148.98 188.6 2
 -11 0 -3 1072.52 142.172 5
 -11 0 3 1227.84 178.194 8
 11 0 -3 1525.23 157.937 4
 11 0 -3 1564.39 157.159 6
 11 0 -4 422.898 88.0403 4
 -11 0 4 128.076 92.5845 8
 -11 0 -4 201.891 73.3568 5
 11 0 4 255.514 69.5212 7
 11 0 -4 276.152 75.8944 6
 -11 0 4 238.027 109.767 2
 -11 0 -5 1443.83 168.174 5
 -11 0 5 695.563 164.764 2
 11 0 5 1491.19 158.042 7
 11 0 -5 1661.05 168.59 6
 11 0 -5 1201.51 137.808 4
 -11 0 5 1050.95 158.269 8
 -11 0 -5 1125.8 208.078 3
 11 0 -6 2.89716 54.2442 6
 -11 0 6 8.19082 69.619 8
 11 0 6 -17.5195 40.6938 7
 -11 0 -6 5.57138 92.3512 3
 -11 0 -6 3.52238 51.9973 5
 -11 0 -7 138.501 68.0915 5
 11 0 7 87.8733 48.1875 7
 -11 0 7 129.609 96.5762 2
 -11 0 -7 113.366 107.578 3
 11 0 -7 40.1056 68.6102 6
 11 0 -7 97.0536 59.593 4
 -11 0 7 153.817 83.1155 8
 11 0 7 198.158 52.8897 1
 -11 0 -8 219.633 70.9708 5
 -11 0 8 103.9 88.2693 2
 11 0 8 136.862 54.9281 7
 -11 0 -8 251.116 111.236 3
 -11 0 8 202.356 86.7909 8
 11 0 -8 30.9001 56.37 6
 11 0 8 214.62 53.2159 1
 11 0 -8 144.141 63.989 4
 -11 1 8 6545.54 437.982 2
 -11 1 8 6683.37 370.916 8
 11 1 -8 7642.28 344.201 4
 11 -1 8 6860.52 229.625 1
 -11 -1 -8 6830.79 411.72 3
 11 1 -8 7682.03 338.874 6
 -11 1 7 1921.02 244.315 2
 -11 1 7 2136.74 213.665 8
 -11 -1 -7 1603.18 170.594 5
 11 1 -7 1647.18 165.218 4
 11 -1 7 1665.08 116.118 1
 -11 -1 -7 2004.77 237.019 3
 -11 1 6 8673.2 424.987 8
 -11 -1 -6 8008.61 501.051 3
 -11 1 6 8101.54 495.899 2
 -11 1 5 1936.4 252.914 2
 -11 -1 -5 2061.77 206.992 5
 11 1 -5 2327.33 193.423 6
 11 1 -5 1772.42 172.312 4
 -11 -1 -5 2256.27 274.675 3
 -11 1 5 2404.78 234.386 8
 -11 1 4 4765.13 373.818 2
 -11 -1 -4 5075.01 323.025 5
 -11 1 4 4852.23 322.202 8
 11 -1 4 4806.34 277.241 4
 11 1 -4 4904.26 291.509 4
 -11 -1 -4 5076.42 414.182 3
 -11 1 4 5133.33 294.854 5
 11 1 -4 5166.2 274.365 6
 -11 1 3 2600.24 250.981 8
 11 1 -3 3087.07 218.521 6
 -11 1 3 2629.95 213.8 5
 11 1 -3 3078.92 224.556 4
 11 -1 3 2897.76 222.524 4
 -11 1 2 2843.11 219.616 5
 11 1 -2 2530.5 210.207 6
 11 1 -2 2307.79 203.044 4
 11 -1 2 3074.83 221.561 4
 -11 1 1 3968.63 306.988 8
 11 1 -1 3761.51 257.431 7
 11 -1 1 3063.09 224.79 4
 11 1 -1 3353.26 235.729 6
 11 -1 0 2206.14 198.292 4
 -11 1 0 1898.88 182.815 5
 -11 1 -1 3339.11 243.948 5
 -11 -1 1 3762.3 323.092 2
 11 -1 -1 3840.28 243.275 4
 11 -1 -2 3435.16 234.239 6
 -11 1 -2 3750.21 256.636 5
 -11 -1 2 3135.96 277.489 8
 -11 -1 2 3350.2 300.165 2
 11 1 2 3098.04 222.885 7
 11 -1 -3 3417.66 261.473 6
 -11 1 -3 3649.57 253.548 5
 -11 -1 3 3320.51 284.619 8
 -11 -1 3 2795.33 290.726 2
 -11 -1 4 5196.04 355.806 8
 11 -1 -4 4528.14 257.677 4
 -11 1 -4 5086.97 293.88 5
 11 1 4 4444.33 254.873 7
 -11 -1 4 4848.66 368.759 2
 11 1 5 2699.2 197.834 7
 -11 -1 5 2356.6 268.781 2
 -11 -1 5 2465.4 240.339 8
 -11 1 -5 1976.21 187.509 5
 11 -1 -5 2362.99 187.508 4
 11 -1 -5 2337.32 189.553 6
 11 -1 -6 6767.08 312.708 6
 -11 -1 6 7651.24 396.763 8
 11 1 7 1807.15 162.711 7
 11 -1 -7 1668.77 162.123 4
 -11 1 -7 2123.1 200.276 5
 -11 1 -7 2068.89 252.321 3
 -11 -1 7 1984.33 250.973 2
 11 -1 -7 1876 169.088 6
 -11 -1 7 2360.79 230.594 8
 11 1 8 5465.47 276.226 7
 11 -1 -8 6086.36 305.716 4
 -11 1 -8 6419.45 410.737 3
 -11 -1 8 5999.84 417.51 2
 -11 -1 8 7444.08 399.745 8
 -11 1 -8 4723.41 285.907 5
 11 1 8 5807.36 208.197 1
 11 -2 8 117.24 58.0651 1
 11 2 -8 349.665 91.6181 4
 -11 2 8 277.225 112.861 2
 -11 2 8 381.058 106.218 8
 11 2 -8 263.245 78.2309 6
 -11 -2 -7 991.823 183.256 3
 11 2 -7 940.499 128.594 6
 11 -2 7 806.976 86.3194 1
 -11 2 7 1156.41 168.437 8
 11 -2 6 223.281 52.0962 1
 -11 -2 -6 222.662 111.573 3
 11 2 -6 347.767 97.7164 6
 11 -2 5 656.659 79.1135 1
 -11 2 5 530.282 101.763 5
 11 -2 5 469.584 96.347 4
 -11 2 5 427.507 111.38 8
 -11 -2 -5 431.568 145.522 3
 11 2 -5 285.535 100.707 4
 11 -2 4 390.919 87.8136 4
 -11 -2 -4 520.006 153.48 3
 11 2 -4 367.752 87.9174 7
 11 -2 4 594.743 86.7062 1
 11 2 -4 437.12 94.9294 6
 -11 2 4 260.07 97.1901 8
 -11 2 4 439.348 92.603 5
 11 -2 3 628.307 108.666 4
 -11 2 3 556.218 101.917 5
 -11 2 3 632.569 130.015 8
 11 2 -3 554.722 98.7533 6
 11 2 -3 658.958 112.039 7
 -11 -2 -3 483.018 156.872 3
 -11 -2 -3 572.228 131.215 2
 11 2 -2 237.623 76.994 6
 11 2 -2 232.654 73.7675 7
 -11 -2 -2 285.954 102.167 2
 -11 2 2 258.525 75.7979 5
 11 -2 2 271.685 76.0287 4
 -11 2 2 352.231 112.757 8
 11 2 -1 1182.74 143.463 6
 -11 -2 -1 1349.82 192.305 2
 -11 2 1 1312.93 154.479 5
 -11 2 1 1119.95 187.427 8
 11 -2 1 1206.17 143.355 4
 11 2 -1 819.92 123.899 7
 -11 -2 0 163.837 77.7827 2
 -11 2 0 254.82 78.2499 5
 11 2 0 86.0233 59.2493 7
 11 -2 0 119.497 66.6874 4
 -11 -2 1 1119.46 185.354 2
 11 2 1 650.329 128.631 7
 -11 2 -1 889.535 132.039 5
 -11 2 -2 425.117 101.206 5
 11 -2 -2 470.573 96.3244 4
 -11 -2 2 466.431 133.793 2
 11 2 2 505.554 94.5727 7
 -11 2 -3 492.814 102.332 5
 11 -2 -3 494.343 97.501 4
 -11 -2 3 419.177 119.053 8
 -11 -2 3 364.533 118.794 2
 11 -2 -3 540.008 104.996 6
 11 2 3 422.852 85.2525 7
 -11 -2 4 899.308 165.7 2
 11 -2 -4 723.693 140.768 6
 11 -2 -4 487.959 97.4122 4
 -11 -2 4 831.895 154.077 8
 11 2 4 714.941 108.113 7
 -11 2 -4 630.83 114.194 5
 11 2 5 641.159 102.348 7
 11 -2 -5 456.007 91.746 4
 -11 -2 5 749.815 158.128 2
 -11 2 -5 570.963 110.879 5
 -11 -2 6 576.943 141.828 8
 11 2 6 484.171 89.3175 7
 11 -2 -6 402.301 86.9223 4
 -11 2 -6 469.122 144.686 3
 -11 -2 6 504.426 133.178 2
 11 -2 -6 662.585 116.248 6
 -11 2 -6 498.145 101.035 5
 11 -2 -7 969.229 127.818 6
 -11 2 -7 710.252 124.033 5
 -11 -2 7 1002.52 158.041 8
 11 2 7 806.336 116.448 7
 -11 -2 7 831.434 163.685 2
 -11 2 -7 779.294 171.917 3
 11 -2 -8 316.709 86.3875 6
 11 2 8 296.157 70.9859 7
 11 -2 -8 333.024 82.0472 4
 -11 2 -8 418.013 91.9723 5
 -11 -2 8 477.789 135.735 2
 -11 -2 8 392.521 106.745 8
 -11 2 -8 385.509 134.791 3
 11 2 8 358.998 61.1508 1
 -11 3 8 970.123 169.332 5
 -11 -3 -7 4190.67 325.435 3
 -11 3 7 4712.26 306.905 8
 11 -3 7 4414.54 269.644 4
 -11 3 7 4935.25 295.39 5
 11 3 -6 1560.42 164.245 6
 -11 -3 -6 1084.72 196.81 3
 11 3 -6 1104.9 144.553 7
 -11 3 6 1047.02 135.277 5
 11 -3 6 1162.34 102.57 1
 -11 3 6 1378.23 186.729 8
 11 -3 6 1459.85 159.227 4
 11 -3 5 5280.46 208.998 1
 11 3 -5 5828.06 329.488 7
 -11 3 5 5686.81 326.939 5
 -11 3 4 245.851 76.7017 5
 11 -3 4 244.037 70.9745 4
 -11 3 4 250.526 99.5403 8
 11 3 -4 339.066 85.6526 6
 11 -3 4 231.808 54.9299 1
 -11 -3 -4 223.556 90.4687 2
 11 3 -4 201.113 70.7337 7
 -11 -3 -4 261.99 124.158 3
 -11 -3 -3 8809.87 537.855 3
 -11 3 3 9850.96 461.514 8
 11 -3 3 12768.9 444.228 4
 -11 3 3 9483.26 387.642 5
 11 3 -3 10055.4 412.828 7
 11 -3 3 10962.6 310.654 1
 -11 -3 -3 7945.95 426.131 2
 11 3 -3 10555 400.686 6
 -11 3 2 805.152 151.567 8
 11 -3 2 780.66 117.161 4
 -11 -3 -2 513.639 157.587 3
 11 3 -2 780.116 118.587 7
 -11 -3 -2 576.241 140.476 2
 11 3 -2 601.225 105.733 6
 -11 3 2 672.031 112.636 5
 -11 3 1 7741.1 352.013 5
 11 3 -1 8086.99 358.534 7
 -11 3 1 6869.71 418.421 8
 11 -3 1 8248.46 353.381 4
 11 3 -1 6901.61 357.316 6
 -11 -3 0 327.488 103.82 2
 11 3 0 370.058 86.4477 7
 -11 3 0 430.411 96.3437 5
 -11 3 0 290.418 102.584 8
 11 -3 0 300.481 84.7521 4
 11 3 1 6304.1 320.538 7
 11 -3 -1 6779.99 334.069 4
 -11 -3 1 7193.68 449.482 2
 11 3 2 547.4 98.3028 7
 11 -3 -2 612.657 103.656 4
 -11 -3 2 644.081 143.076 2
 -11 3 -2 531.292 103.153 5
 11 3 3 10702.1 401.278 7
 11 -3 -3 9074.29 379.987 4
 -11 -3 3 10079 505.435 2
 -11 3 -3 11772.9 455.839 5
 -11 -3 4 190.093 94.2239 2
 -11 -3 4 111.321 81.3935 8
 11 -3 -4 146.289 71.6958 6
 11 3 4 217.483 68.0094 7
 11 -3 -4 249.408 75.2953 4
 -11 3 -4 149.684 71.5298 5
 -11 -3 5 6422.37 434.668 2
 -11 -3 5 6349.41 427.576 8
 11 -3 -5 6677.16 341.102 6
 -11 3 -6 1307.33 218.577 3
 -11 3 -6 1051.72 139.72 5
 -11 -3 6 1043.06 178.395 2
 11 -3 -6 839.226 129.465 4
 11 3 6 1070.9 126.393 7
 11 3 7 3726.08 240.917 7
 -11 3 -7 4423.64 374.498 3
 -11 -3 7 3957.42 333.874 2
 11 -3 -7 3755.2 232.653 4
 11 -4 7 469.314 104.579 1
 -11 4 7 687.847 129.487 8
 -11 4 7 838.373 124.101 5
 11 4 -7 643.322 107.394 7
 -11 -4 -7 729.11 150.139 3
 11 -4 7 799.06 122.45 4
 11 -4 6 1009.28 148.173 1
 -11 4 6 1806.68 171.567 5
 -11 4 6 2143.17 228.539 8
 -11 -4 -6 1503.87 189.923 2
 -11 -4 -6 1444.96 197.665 3
 11 4 -6 1530.07 160.84 6
 11 4 -6 1334.84 155.969 7
 11 -4 6 1257.19 151.164 4
 -11 -4 -5 245.514 118.469 3
 -11 4 5 433.093 117.202 8
 -11 4 5 269.923 82.0738 5
 11 -4 5 384.905 86.5583 4
 -11 -4 -5 344.84 99.8003 2
 11 4 -5 395.918 90.0695 7
 11 4 -5 44.7336 63.2678 6
 -11 -4 -4 1415.36 219.035 3
 -11 4 4 1715.73 205.796 8
 11 4 -4 1338.61 155.215 7
 -11 -4 -4 1607.91 203.342 2
 -11 4 3 477.876 94.4871 5
 -11 4 3 537.903 122.122 8
 11 -4 3 447.908 94.8898 4
 -11 -4 -3 469.493 138.649 3
 11 4 -3 439.384 94.9251 6
 -11 -4 -3 435.122 111.659 2
 11 4 -3 436.136 98.5634 7
 -11 4 2 1161.48 140.109 5
 -11 4 2 1302.42 188.408 8
 11 -4 2 1050.11 137.655 4
 11 4 -2 1126.68 146.318 6
 11 4 -2 930.363 131.658 7
 -11 -4 -2 941.073 158.643 2
 11 4 -1 39.0125 52.952 6
 -11 -4 -1 18.6734 60.965 2
 11 4 -1 18.4247 44.8354 7
 11 -4 1 61.72 51.5738 4
 -11 4 1 74.9212 81.3529 8
 -11 4 1 63.5816 54.3416 5
 11 -4 0 584.126 108.815 4
 -11 4 0 989.67 132.92 5
 -11 -4 0 946.824 159.039 2
 11 4 0 805.542 122.232 7
 -11 -4 1 52.0681 69.8752 2
 11 -4 -1 29.3272 58.4856 4
 -11 4 -1 16.031 53.1459 5
 11 4 1 71.3001 48.6552 7
 -11 -4 2 1027.18 187.444 2
 11 4 2 1435.15 165.246 7
 11 -4 -2 1537.68 169.486 4
 11 -4 -3 306.789 83.9609 4
 11 4 3 280.343 74.9376 7
 -11 -4 3 249.891 102.623 2
 -11 4 -3 296.462 82.0886 5
 11 -4 -4 203.516 105.441 4
 -11 -4 5 229.265 97.3058 2
 -11 4 -5 198.116 72.9743 5
 -11 -4 5 204.001 93.5833 8
 11 4 5 178.338 64.7572 7
 11 -4 -5 233.984 71.134 4
 11 4 6 1677.82 154.605 7
 11 -4 -6 1774.99 161.864 4
 -11 4 -6 1961.75 179.537 5
 11 -4 -6 1670.14 175.516 6
 -11 -4 6 1611.13 208.816 8
 -11 -4 6 1548.21 212.805 2
 -11 4 -7 1061.93 195.788 3
 -11 -4 7 995.404 172.995 2
 11 4 7 858.479 111.036 7
 11 -4 -7 609.631 103.644 4
 -11 -4 7 1074.3 186.899 8
 -11 4 -7 888.377 132.279 5
 -11 5 6 1645.68 191.773 8
 11 -5 6 1360.96 148.263 4
 -11 5 6 1372.48 152.867 5
 11 5 -6 1010.67 138.64 7
 -11 -5 -6 1275.42 171.711 2
 -11 -5 -6 994.462 169.872 3
 11 5 -6 1547.49 162.61 6
 -11 -5 -5 3695.32 281.676 2
 11 5 -5 4032.59 264.066 7
 11 -5 5 4062.1 245.211 4
 -11 5 5 4037.66 304.603 8
 -11 5 5 3757.86 252.289 5
 -11 -5 -4 3116.32 273.146 2
 11 5 -4 3290.81 237.271 7
 11 -5 4 2992.67 210.782 4
 -11 5 4 3517.17 238.296 5
 -11 5 4 2786.81 261.022 8
 11 -5 3 3083.47 216.424 4
 -11 5 3 2478.94 199.617 5
 -11 -5 -3 2294.81 237.542 2
 11 5 -3 2743.76 217.049 7
 11 5 -2 6713.88 339.081 6
 11 5 -1 2040.44 188.98 7
 -11 -5 -1 1864.2 222.483 2
 11 5 0 11274.5 426.628 7
 -11 5 0 12853.9 452.03 5
 -11 -5 0 11928.6 548.28 2
 11 5 1 2282.3 193.233 7
 -11 -5 3 2583.44 266.438 2
 11 -5 -3 2756 206.815 4
 11 5 3 2232.33 186.032 7
 -11 5 -3 2304.09 201.008 5
 -11 -5 4 2379.53 259.85 2
 11 -5 -4 1953.81 183.669 4
 11 5 5 3917.98 238.052 7
 -11 5 -5 3510.05 239.25 5
 -11 5 -6 1508.78 156.815 5
 11 -5 -6 1111.55 136.508 4
 11 5 6 1133.25 129.111 7
 -11 -5 6 941.352 170.477 2
 -11 -6 -5 750.484 144.311 2
 11 -6 5 767.013 116.145 4
 11 6 -5 973.458 134.184 7
 -11 6 5 618.173 123.906 5
 -11 -6 -4 2150.15 226.573 2
 11 -6 4 1699.53 165.924 4
 11 6 -4 2149.23 190.414 7
 -11 6 4 2102.21 186.976 5
 11 -6 3 1181.35 144.931 4
 -11 -6 -3 1084.17 167.927 2
 -11 6 3 1164.96 139.125 5
 11 -6 2 946.83 130.518 4
 -11 -6 -2 978.167 155.421 2
 -11 6 2 1279.73 149.043 5
 11 6 -2 920.438 130.171 7
 -11 6 1 816.731 119.641 5
 11 6 -1 858.271 131.462 7
 11 -6 1 1063.05 152.496 4
 -11 -6 0 277.975 97.7662 2
 11 6 0 305.624 82.8638 7
 11 -6 0 221.67 74.8469 4
 -11 6 0 300.905 83.9419 5
 -11 6 -1 1144.76 147.811 5
 11 -6 -1 844.076 124.775 4
 -11 -6 1 1033.26 169.37 2
 11 6 1 887.888 128.244 7
 -11 6 -2 1035.99 136.254 5
 11 -6 -2 798.555 125.561 4
 -11 -6 2 769.022 148.105 2
 11 6 2 862.943 130.199 7
 -11 6 -3 1288.69 152.918 5
 11 -6 -3 933.96 132.195 4
 -11 -6 3 851.616 165.115 2
 11 6 3 1261.43 140.138 7
 -11 6 -4 1904.24 183.49 5
 11 -6 -4 2079.59 188.105 4
 11 6 4 2035.85 173.056 7
 -11 -6 4 1939.45 233.657 2
 -11 6 -5 819.775 119.325 5
 11 -6 -5 686.118 111.28 4
 -11 -6 5 894.384 164.174 2
 11 6 5 827.274 114.901 7
 11 -7 3 68.3054 55.7857 4
 11 7 -3 93.4157 57.8153 7
 -11 7 3 49.3321 54.3329 5
 11 -7 2 7132.3 327.363 4
 -11 7 2 9202.28 383.453 5
 -11 -7 -2 8810.19 447.85 2
 11 7 -2 7007.1 336.264 7
 -11 -7 -1 252.513 99.8357 2
 11 -7 1 243.658 79.1121 4
 11 7 -1 218.864 71.1865 7
 -11 7 1 261.375 80.093 5
 11 -7 0 10574.7 399.054 4
 -11 7 0 11556.3 424.453 5
 -11 -7 0 11129.7 518.363 2
 11 7 0 10630.9 414.72 7
 11 7 1 236.701 76.744 7
 -11 7 -1 338.989 89.9889 5
 11 -7 -1 149.153 70.0211 4
 -11 -7 1 296.43 104.941 2
 11 -7 -2 8926.72 374.79 4
 11 7 2 9253.12 382.895 7
 -11 -7 2 8366.6 446.885 2
 11 7 3 88.5347 53.833 7
 -11 -7 3 94.2258 76.0479 2
 -11 7 -3 27.6117 53.0015 5
 11 -7 -3 56.9247 62.3306 4
 12 0 -2 4485.4 274.179 4
 12 0 -3 1381.16 152.774 6
 12 0 -3 1214.75 156.656 4
 -12 0 3 1329.32 184.921 8
 12 0 -4 4698.36 306.972 6
 12 0 -4 3941.16 255.163 4
 -12 0 -4 4626.67 394.492 3
 12 0 -5 927.811 127.986 4
 -12 0 5 805.314 167.208 2
 12 0 -5 1207.88 138.254 6
 -12 0 -5 879.557 139.578 5
 -12 0 5 926.936 157.795 8
 -12 1 5 574.51 129.421 8
 -12 -1 -5 328.567 130.386 3
 12 -1 5 334.76 68.6715 1
 12 1 -5 305.798 77.9207 6
 -12 1 4 55.1808 80.6918 8
 12 1 -4 -5.60358 51.3844 6
 12 -1 4 91.355 67.9897 1
 -12 -1 -4 18.2073 97.9649 3
 -12 1 3 1020.19 175.914 8
 12 1 -3 432.199 114.63 6
 -12 -1 -3 878.669 199.406 3
 -12 1 2 115.501 84.7415 8
 12 -1 2 1014.69 115.778 1
 12 -1 -1 932.601 137.198 4
 -12 -1 2 77.9757 85.7202 2
 12 -1 -2 154.978 67.0373 4
 -12 1 -2 134.669 65.3264 5
 -12 1 -3 909.227 132.636 5
 12 -1 -3 956.856 129.617 4
 -12 -1 3 961.375 174.918 2
 -12 -1 3 995.256 164.317 8
 -12 -1 4 5.13585 69.8089 2
 -12 -1 4 69.0465 76.956 8
 12 -1 -4 11.9825 50.9237 4
 12 -1 -4 50.9838 59.4687 6
 12 1 4 140.292 82.2614 1
 -12 1 -4 10.1963 47.9415 5
 12 -1 -5 181.807 79.9791 6
 -12 -1 5 508.342 127.284 8
 12 -1 -5 373.706 85.2152 4
 -12 -1 5 421.827 122.002 2
 -12 1 -5 432.51 98.8413 5
 -12 1 -5 363.674 141.02 3
 -12 -2 -5 2218.14 262.064 3
 12 -2 5 1927.36 127.529 1
 -12 -2 -4 1507.23 231.978 3
 -12 2 4 1598.55 196.299 8
 12 2 -4 1181.82 139.324 6
 12 -2 4 1360.66 113.271 1
 -12 -2 -3 2835.52 325.747 3
 -12 2 3 2974.67 274.464 8
 12 -2 3 2510.73 202.411 4
 -12 2 3 2553.98 211.018 5
 -12 2 2 1355.8 193.868 8
 -12 -2 -2 1169.27 222.755 3
 12 2 -2 1138.08 143.058 6
 -12 2 2 1005.85 143.91 5
 12 -2 2 1239.87 150.083 4
 -12 2 1 2412.04 211.637 5
 12 -2 1 1916.54 177.627 4
 -12 -2 0 1874.72 233.956 2
 -12 2 0 1738.32 180.032 5
 12 -2 0 1413.46 155.149 4
 -12 -2 1 1680.06 215.301 2
 12 2 1 969.896 134.329 7
 -12 2 -1 1546.08 172.576 5
 12 -2 -1 1589.4 172.534 4
 -12 -2 2 1032.92 180.47 2
 12 2 2 1144.02 137.603 7
 -12 2 -2 1303.52 159.445 5
 12 -2 -2 978.293 135.469 4
 -12 -2 3 2010.47 240.151 2
 12 -2 -3 2022.4 176.301 4
 -12 2 -3 2016.54 190.849 5
 12 2 3 1967.5 177.632 7
 -12 -2 4 1244.95 189.418 2
 12 2 4 1173.5 134.642 7
 -12 -2 4 1535.66 198.791 8
 12 -2 -5 1956.8 176.092 4
 -12 2 -5 1712.29 177.335 5
 -12 -2 5 1751.29 223.016 2
 12 2 5 1993.39 173.351 7
 -12 -3 -4 529.21 159.301 3
 12 -3 4 672.787 111.216 4
 -12 3 4 653.731 132.179 8
 -12 3 4 602.117 108.121 5
 12 3 -4 423.105 94.4854 6
 12 -3 3 500.62 98.7183 4
 -12 3 3 548.426 102.447 5
 -12 -3 -3 293.791 142.695 3
 12 3 -3 604.592 120.127 6
 -12 3 2 748.717 150.255 8
 -12 -3 -2 641.642 131.588 2
 -12 3 2 499.267 99.045 5
 12 -3 2 540.415 103.717 4
 12 3 -2 601.672 109.121 6
 12 3 -2 583.153 106.465 7
 -12 3 1 500.897 103.394 5
 12 -3 1 403.332 92.1299 4
 -12 -3 -1 450.395 122.476 2
 12 3 -1 364.08 85.6037 7
 -12 3 0 536.38 106.743 5
 12 -3 0 513.433 98.0376 4
 -12 -3 0 235.999 117.717 2
 12 3 0 509.813 101.046 7
 -12 3 -1 530.203 105.928 5
 12 -3 -1 430.566 94.832 4
 12 3 1 301.433 78.076 7
 12 3 2 493.322 94.6704 7
 -12 3 -2 580.714 110.167 5
 12 -3 -2 194.365 86.0677 4
 -12 -3 2 407.355 119.909 2
 -12 3 -3 705.692 122.906 5
 -12 -3 3 823.601 164.375 2
 12 -3 -3 655.913 106.646 4
 12 3 3 453.909 100.124 7
 12 3 4 574.376 97.7536 7
 -12 3 -4 510.217 104.19 5
 -12 -3 4 395.922 115.444 2
 12 -3 -4 562.456 101.221 4
 12 4 -3 5938.42 326.404 7
 12 -4 3 5334.55 300.16 4
 -12 -4 -3 6807.17 407.425 2
 -12 4 3 7191.7 424.36 8
 -12 4 3 4964.36 283.638 5
 12 4 -3 5361.35 287.758 6
 12 -4 2 391.144 92.1624 4
 -12 -4 -2 402.084 114.645 2
 12 4 -2 293.677 78.3682 7
 12 4 -2 454.789 102.954 6
 -12 4 2 432.348 92.4087 5
 -12 -4 -1 5113.47 354.377 2
 -12 4 1 5881.02 319.334 5
 12 4 -1 5713.93 306.474 7
 12 -4 0 879.246 123.704 4
 -12 -4 0 870.66 164.393 2
 12 4 0 1224.02 146.575 7
 -12 4 0 724.458 121.59 5
 12 -4 -1 5667.5 300.833 4
 -12 -4 1 5884.9 387.068 2
 12 4 1 5817.41 314.452 7
 -12 4 -1 5960.11 316.757 5
 12 -4 -2 382.262 95.3852 4
 -12 4 -2 414.454 95.115 5
 -12 -4 2 381.188 113.135 2
 12 4 2 379.219 86.7557 7
 12 -4 -3 4054.08 259.804 4
 -12 -4 3 3968.31 335.969 2
 -12 4 -3 4206.33 272.008 5
 12 4 3 4692.97 266.424 7
 12 5 -1 203.859 65.4757 7
 -12 -5 -1 67.895 71.0423 2
 12 -5 0 349.551 83.6546 4
 -12 5 0 370.41 90.6203 5
 -12 -5 0 343.277 111.284 2
 12 5 0 419.348 89.7921 7
 12 5 1 181.09 79.6472 7

_iucr_refine_fcf_details
;
data_D1-PPh3AuI-1_11880
_computing_structure_refinement   'olex2.refine 1.5-alpha (Bourhis et al., 2015)'
_shelx_refln_list_code            4
loop_
  _space_group_symop_id
  _space_group_symop_operation_xyz
  1  x,y,z
  2  x+1/2,-y+1/2,-z
  3  -x,y+1/2,-z+1/2
  4  -x+1/2,-y,z+1/2

_space_group_crystal_system       orthorhombic
_space_group_IT_number            19
_space_group_name_H-M_alt         'P 21 21 21'
_space_group_name_Hall            ' P 2ac 2ab'
_symmetry_space_group_name_H-M    'P 21 21 21'
_symmetry_space_group_name_Hall   ' P 2ac 2ab'
_symmetry_Int_Tables_number       19
_cell_length_a                    10.0689(3)
_cell_length_b                    12.4672(6)
_cell_length_c                    13.4304(4)
_cell_angle_alpha                 90
_cell_angle_beta                  90
_cell_angle_gamma                 90
_cell_volume                      1685.93(11)
loop_
  _refln_index_h
  _refln_index_k
  _refln_index_l
  _refln_F_squared_calc
  _refln_F_squared_meas
  _refln_F_squared_sigma
  _refln_F_squared_weight
  _refln_observed_status
-12 -5 -1 16.938 16.026 7.787 210.619 o
-12 -4 -3 624.211 663.339 36.517 5.810 o
-12 -4 -2 48.191 45.063 4.806 319.652 o
-12 -4 -1 718.141 643.864 23.235 7.774 o
-12 -3 -4 66.651 66.682 5.915 208.902 o
-12 -3 -3 73.129 59.069 6.441 187.693 o
-12 -3 -2 75.908 67.712 5.288 217.979 o
-12 -3 -1 53.910 48.856 5.626 254.046 o
-12 -2 -5 264.026 227.909 16.654 28.157 o
-12 -2 -4 177.445 157.356 9.313 67.697 o
-12 -2 -3 342.888 305.868 13.734 26.226 o
-12 -2 -2 140.224 134.432 8.348 88.983 o
-12 -2 -1 253.294 246.209 28.379 13.728 o
-12 -1 -5 45.260 42.592 5.771 267.000 o
-12 -1 -4 3.415 4.246 3.922 845.261 o
-12 -1 -3 120.644 87.601 18.951 33.360 o
-12 -1 -2 13.371 83.410 51.500 5.287 o
-11 -7 -3 11.838 8.006 3.698 803.375 o
-11 -7 -2 981.921 912.270 64.036 2.200 o
-11 -7 -1 38.769 27.849 4.625 390.154 o
-11 -6 -5 93.184 90.658 7.351 135.349 o
-11 -6 -4 249.967 230.500 11.203 41.848 o
-11 -6 -3 130.294 131.829 9.868 78.667 o
-11 -6 -2 101.535 118.928 8.445 105.970 o
-11 -6 -1 109.139 103.567 8.767 101.766 o
-11 -5 -6 154.948 152.527 8.782 77.761 o
-11 -5 -5 453.114 449.527 13.685 18.018 o
-11 -5 -4 379.331 362.569 12.355 24.225 o
-11 -5 -3 284.577 308.049 17.418 23.977 o
-11 -5 -2 840.716 769.063 38.841 4.371 o
-11 -5 -1 257.697 225.708 16.499 28.859 o
-11 -4 -7 99.308 80.263 5.631 171.290 o
-11 -4 -6 181.340 171.863 10.486 58.842 o
-11 -4 -5 34.183 34.407 4.665 390.868 o
-11 -4 -4 166.304 172.847 10.914 59.188 o
-11 -4 -3 45.617 52.869 4.541 334.732 o
-11 -4 -2 126.488 123.928 6.895 113.011 o
-11 -4 -1 1.125 5.044 2.569 1893.810 o
-11 -3 -8 190.882 111.126 19.397 28.728 o
-11 -3 -7 517.318 525.328 17.233 13.326 o
-11 -3 -6 144.729 143.613 8.373 85.635 o
-11 -3 -5 850.416 630.523 19.709 7.208 o
-11 -3 -4 25.974 28.507 3.148 681.503 o
-11 -3 -3 1172.010 1183.770 47.676 2.494 o
-11 -3 -2 90.878 79.602 5.420 186.254 o
-11 -3 -1 1012.590 876.954 30.349 4.313 o
-11 -2 -8 32.572 30.391 4.193 458.903 o
-11 -2 -7 106.182 105.716 7.208 125.164 o
-11 -2 -6 26.892 29.131 4.869 404.483 o
-11 -2 -5 59.655 59.690 5.250 252.839 o
-11 -2 -4 40.385 51.219 4.133 387.397 o
-11 -2 -3 61.983 67.862 5.018 251.807 o
-11 -2 -2 29.569 30.639 3.875 517.598 o
-11 -2 -1 128.485 132.844 7.107 107.157 o
-11 -1 -8 749.414 811.132 21.912 6.974 o
-11 -1 -7 214.094 203.024 9.794 53.479 o
-11 -1 -6 883.800 952.869 31.077 4.625 o
-11 -1 -5 260.086 242.980 10.397 42.090 o
-11 -1 -4 615.008 570.669 12.668 12.338 o
-11 -1 -3 321.663 330.157 11.529 29.916 o
-11 -1 -2 364.799 309.403 17.851 20.257 o
-11 -1 -1 411.903 400.522 21.722 14.524 o
-10 -9 -3 122.426 115.898 7.855 105.051 o
-10 -9 -2 226.051 250.185 15.264 32.676 o
-10 -9 -1 10.339 11.968 3.526 857.971 o
-10 -8 -5 23.982 21.942 4.319 506.388 o
-10 -8 -4 163.941 160.515 9.338 70.394 o
-10 -8 -3 77.763 83.587 6.840 160.419 o
-10 -8 -2 170.157 184.922 9.706 63.955 o
-10 -8 -1 203.564 207.505 10.327 52.704 o
-10 -7 -7 324.181 295.525 40.644 7.147 o
-10 -7 -6 256.231 235.209 15.304 31.079 o
-10 -7 -5 483.655 464.594 16.738 15.081 o
-10 -7 -4 175.200 169.461 9.502 65.706 o
-10 -7 -3 341.580 328.778 19.697 18.825 o
-10 -7 -2 46.243 52.544 5.661 262.476 o
-10 -7 -1 210.497 207.996 10.423 51.190 o
-10 -6 -8 117.115 124.341 6.161 128.342 o
-10 -6 -7 119.691 100.931 13.628 55.854 o
-10 -6 -6 242.891 263.226 11.407 40.255 o
-10 -6 -5 29.029 25.150 4.610 434.546 o
-10 -6 -4 443.086 461.678 12.576 18.864 o
-10 -6 -3 0.069 -0.577 2.893 1681.800 o
-10 -6 -2 582.707 633.342 26.322 8.427 o
-10 -6 -1 5.447 7.852 3.429 1007.790 o
-10 -5 -9 351.854 273.402 50.639 4.855 o
-10 -5 -8 175.360 169.690 6.663 83.479 o
-10 -5 -7 466.833 484.922 26.201 10.597 o
-10 -5 -6 231.968 230.897 8.516 52.662 o
-10 -5 -5 391.728 383.937 18.361 17.690 o
-10 -5 -4 408.616 395.320 18.258 17.108 o
-10 -5 -3 273.800 320.362 25.691 15.005 o
-10 -5 -2 822.608 881.972 24.165 5.871 o
-10 -5 -1 143.132 148.535 11.543 61.752 o
-10 -4 -9 220.443 201.336 8.259 58.608 o
-10 -4 -8 182.588 164.441 7.761 74.959 o
-10 -4 -7 406.327 406.062 11.924 22.122 o
-10 -4 -6 202.581 198.784 20.727 24.059 o
-10 -4 -5 614.104 617.270 18.219 10.379 o
-10 -4 -4 335.297 322.279 11.558 29.171 o
-10 -4 -3 776.739 586.745 18.761 8.327 o
-10 -4 -2 528.759 522.542 18.282 12.671 o
-10 -4 -1 422.528 429.670 21.500 14.140 o
-10 -3 -10 258.371 233.272 14.809 32.052 o
-10 -3 -9 18.651 14.171 2.560 1077.040 o
-10 -3 -8 299.262 288.916 11.946 32.569 o
-10 -3 -7 6.093 6.061 2.171 2047.540 o
-10 -3 -6 748.268 733.355 22.369 7.246 o
-10 -3 -5 18.582 24.367 3.203 773.639 o
-10 -3 -4 1768.610 1602.220 42.078 1.625 o
-10 -3 -3 115.126 128.830 6.747 119.924 o
-10 -3 -2 1938.280 1973.760 29.527 1.449 o
-10 -3 -1 307.038 327.157 17.215 22.881 o
-10 -2 -10 165.961 175.667 8.240 75.088 o
-10 -2 -9 220.070 214.088 23.476 19.356 o
-10 -2 -8 268.719 233.769 14.567 31.832 o
-10 -2 -7 613.239 580.982 14.935 11.633 o
-10 -2 -6 364.327 338.410 9.651 28.895 o
-10 -2 -5 974.758 979.905 25.536 4.636 o
-10 -2 -4 397.476 358.724 13.264 22.498 o
-10 -2 -3 697.231 683.125 23.853 7.663 o
-10 -2 -2 189.661 182.808 7.320 72.798 o
-10 -2 -1 947.524 840.959 32.245 4.484 o
-10 -1 -10 41.128 37.564 3.505 478.452 o
-10 -1 -9 79.060 76.494 6.598 168.634 o
-10 -1 -8 100.716 101.592 4.956 173.424 o
-10 -1 -7 392.650 359.715 21.534 15.518 o
-10 -1 -6 289.646 320.502 13.382 29.622 o
-10 -1 -5 828.757 841.205 17.433 6.765 o
-10 -1 -4 323.567 312.327 11.401 30.632 o
-10 -1 -3 2030.130 2052.690 65.925 1.008 o
-10 -1 -2 558.469 537.676 11.770 14.338 o
-10 -1 -1 3684.930 3561.850 81.150 0.387 o
-9 -11 -1 87.121 86.558 7.142 145.056 o
-9 -10 -5 17.079 13.972 7.417 230.870 o
-9 -10 -4 341.564 356.045 22.618 15.860 o
-9 -10 -3 12.091 15.468 3.767 737.651 o
-9 -10 -2 291.588 307.907 13.993 28.895 o
-9 -10 -1 4.107 1.482 2.763 1608.380 o
-9 -9 -6 49.658 48.767 5.454 271.287 o
-9 -9 -5 38.484 40.177 5.113 328.946 o
-9 -9 -4 42.142 40.913 5.166 314.777 o
-9 -9 -2 18.190 21.311 4.306 543.257 o
-9 -9 -1 25.183 24.357 5.070 396.002 o
-9 -8 -8 285.201 275.114 10.177 37.944 o
-9 -8 -7 572.699 573.847 31.900 7.337 o
-9 -8 -6 360.332 366.691 13.266 24.161 o
-9 -8 -4 156.287 147.719 8.745 78.345 o
-9 -8 -3 409.080 460.930 20.754 14.554 o
-9 -8 -2 81.811 78.394 6.826 159.561 o
-9 -8 -1 405.175 436.866 14.897 19.128 o
-9 -7 -9 202.720 209.874 7.682 64.035 o
-9 -7 -8 69.159 64.188 4.605 259.879 o
-9 -7 -7 141.338 135.853 6.863 102.894 o
-9 -7 -6 108.820 117.041 6.383 133.086 o
-9 -7 -5 113.278 109.342 6.184 135.877 o
-9 -7 -4 169.046 178.586 11.026 57.620 o
-9 -7 -3 6.550 7.510 3.327 1041.860 o
-9 -7 -2 87.214 91.138 7.181 142.555 o
-9 -7 -1 52.462 61.533 6.018 227.653 o
-9 -6 -10 8.414 9.884 3.639 855.668 o
-9 -6 -9 744.953 729.253 13.950 8.664 o
-9 -6 -8 56.466 58.754 9.287 124.809 o
-9 -6 -7 1097.110 1121.860 30.289 3.589 o
-9 -6 -6 115.444 127.608 6.771 119.773 o
-9 -6 -5 1236.840 1285.480 40.840 2.573 o
-9 -6 -4 223.593 244.356 11.323 43.795 o
-9 -6 -3 888.444 920.774 25.505 5.220 o
-9 -6 -2 465.084 461.793 15.498 16.330 o
-9 -6 -1 996.523 1080.130 33.236 3.794 o
-9 -5 -10 158.570 155.832 6.575 93.365 o
-9 -5 -9 63.162 63.270 4.771 265.455 o
-9 -5 -8 289.290 270.417 14.352 29.634 o
-9 -5 -7 28.744 30.424 3.625 562.362 o
-9 -5 -6 517.374 517.443 20.449 12.025 o
-9 -5 -5 89.791 91.276 6.568 153.653 o
-9 -5 -4 499.547 507.661 10.820 16.924 o
-9 -5 -3 144.576 163.432 8.336 82.742 o
-9 -5 -2 199.793 207.593 8.427 61.603 o
-9 -5 -1 40.101 52.524 5.058 313.142 o
-9 -4 -11 104.923 105.370 5.644 153.595 o
-9 -4 -10 303.982 297.690 10.086 35.086 o
-9 -4 -9 234.867 217.292 6.977 58.645 o
-9 -4 -8 551.185 502.993 18.593 12.299 o
-9 -4 -7 479.211 475.373 26.211 10.497 o
-9 -4 -6 1197.830 1274.260 77.659 1.458 o
-9 -4 -5 192.705 178.287 6.334 77.977 o
-9 -4 -4 2588.440 2411.190 77.616 0.682 o
-9 -4 -3 36.236 35.853 3.909 462.088 o
-9 -4 -2 4337.770 4467.120 181.582 0.186 o
-9 -4 -1 41.638 46.607 5.913 261.607 o
-9 -3 -11 17.330 17.091 2.548 1078.850 o
-9 -3 -10 171.561 183.732 11.807 52.962 o
-9 -3 -9 217.782 219.439 6.647 63.518 o
-9 -3 -8 275.684 271.499 8.005 43.994 o
-9 -3 -7 295.158 311.653 11.198 33.293 o
-9 -3 -6 389.622 427.525 24.090 13.214 o
-9 -3 -5 449.352 468.216 10.458 19.769 o
-9 -3 -4 341.847 326.641 8.868 32.134 o
-9 -3 -3 671.608 685.432 37.660 5.351 o
-9 -3 -2 394.835 410.243 17.386 17.977 o
-9 -3 -1 169.972 176.829 15.317 39.413 o
-9 -2 -11 26.461 26.360 3.102 697.293 o
-9 -2 -10 217.716 211.521 8.116 58.693 o
-9 -2 -9 82.693 73.844 3.818 253.038 o
-9 -2 -8 611.388 636.893 12.390 11.806 o
-9 -2 -7 104.617 102.814 5.216 163.363 o
-9 -2 -6 1470.470 1373.480 23.738 2.558 o
-9 -2 -5 1272.220 1218.670 29.304 3.014 o
-9 -2 -4 2702.590 3041.540 70.103 0.614 o
-9 -2 -3 3421.460 3212.110 59.346 0.489 o
-9 -2 -2 3621.340 3694.000 60.024 0.421 o
-9 -2 -1 5133.710 5416.980 264.274 0.108 o
-9 -1 -11 152.534 139.950 5.960 105.246 o
-9 -1 -10 40.753 32.703 5.535 300.952 o
-9 -1 -9 376.048 375.046 11.685 24.745 o
-9 -1 -8 29.691 29.112 2.874 695.101 o
-9 -1 -7 897.266 894.349 23.082 5.484 o
-9 -1 -6 18.213 30.282 3.255 729.991 o
-9 -1 -5 1288.460 1326.330 34.984 2.652 o
-9 -1 -4 8.322 10.227 2.518 1469.270 o
-9 -1 -3 1081.410 1143.510 26.831 3.796 o
-9 -1 -2 4.828 9.881 2.414 1728.080 o
-9 -1 -1 284.491 303.335 12.636 31.916 o
-8 -12 -2 19.389 10.582 3.630 726.127 o
-8 -12 -1 114.890 108.790 8.014 108.056 o
-8 -11 -5 202.983 222.594 12.120 44.973 o
-8 -11 -4 601.063 648.748 21.227 9.511 o
-8 -11 -3 180.301 173.381 9.784 62.611 o
-8 -11 -2 627.450 577.956 43.163 4.902 o
-8 -11 -1 101.568 107.604 9.383 96.068 o
-8 -10 -7 11.348 13.357 3.527 835.023 o
-8 -10 -6 8.501 9.544 3.916 760.228 o
-8 -10 -5 64.317 77.840 9.031 122.160 o
-8 -10 -4 5.923 5.780 6.147 353.623 o
-8 -10 -3 173.584 159.387 9.237 68.838 o
-8 -10 -2 121.710 119.905 8.209 100.255 o
-8 -10 -1 362.972 352.798 13.288 24.364 o
-8 -9 -9 201.325 187.853 13.552 42.115 o
-8 -9 -8 409.266 437.019 35.923 7.784 o
-8 -9 -7 377.139 429.407 18.795 17.108 o
-8 -9 -5 566.330 655.133 22.165 9.651 o
-8 -9 -4 835.422 863.482 22.878 5.998 o
-8 -9 -3 853.795 904.231 39.150 4.070 o
-8 -9 -2 980.351 1085.010 41.745 3.271 o
-8 -9 -1 727.387 773.034 23.107 7.133 o
-8 -8 -10 52.893 56.420 12.824 74.482 o
-8 -8 -9 34.004 36.638 3.654 503.963 o
-8 -8 -8 16.470 14.158 3.274 846.780 o
-8 -8 -7 13.845 13.312 2.872 1056.070 o
-8 -8 -6 97.576 102.148 5.920 156.138 o
-8 -8 -5 49.168 58.855 5.995 235.451 o
-8 -8 -4 378.112 384.887 13.589 22.485 o
-8 -8 -2 565.158 634.620 17.447 11.261 o
-8 -8 -1 315.036 332.261 18.418 21.009 o
-8 -7 -10 104.461 107.233 6.071 145.296 o
-8 -7 -9 601.967 727.816 42.160 4.877 o
-8 -7 -8 228.231 227.884 7.376 57.556 o
-8 -7 -7 954.214 979.069 39.273 3.645 o
-8 -7 -6 695.634 697.009 15.626 9.233 o
-8 -7 -5 2089.230 2206.420 43.652 1.138 o
-8 -7 -4 623.860 654.716 16.304 10.445 o
-8 -7 -3 2696.780 2863.460 62.069 0.668 o
-8 -7 -2 214.142 218.920 12.336 43.168 o
-8 -7 -1 2760.250 3037.240 46.604 0.682 o
-8 -6 -11 161.809 162.030 9.027 72.824 o
-8 -6 -10 5.422 4.108 2.790 1475.890 o
-8 -6 -9 364.453 349.243 12.368 25.416 o
-8 -6 -8 104.467 107.856 5.789 150.198 o
-8 -6 -7 233.312 253.884 11.096 42.731 o
-8 -6 -6 250.383 245.185 10.073 44.038 o
-8 -6 -5 55.951 60.761 4.152 319.125 o
-8 -6 -4 725.201 781.544 36.995 5.007 o
-8 -6 -3 43.848 49.737 4.561 343.170 o
-8 -6 -2 1676.570 1683.730 25.374 1.934 o
-8 -6 -1 168.710 175.370 8.306 73.926 o
-8 -5 -12 65.457 61.766 7.348 165.930 o
-8 -5 -11 290.804 286.276 13.782 30.020 o
-8 -5 -10 168.310 159.302 6.437 89.705 o
-8 -5 -9 370.797 371.320 11.034 25.835 o
-8 -5 -8 495.519 473.611 12.746 16.712 o
-8 -5 -7 557.232 528.052 25.489 9.505 o
-8 -5 -6 1685.520 1680.210 47.016 1.585 o
-8 -5 -5 733.494 718.522 15.010 8.710 o
-8 -5 -4 3389.790 3864.030 125.244 0.320 o
-8 -5 -3 544.708 565.038 10.789 14.671 o
-8 -5 -2 5334.800 4464.040 51.358 0.238 o
-8 -5 -1 408.918 436.358 23.420 13.195 o
-8 -4 -12 228.770 242.848 7.445 55.699 o
-8 -4 -11 312.588 282.504 20.625 19.406 o
-8 -4 -10 493.469 474.536 10.721 17.766 o
-8 -4 -9 271.408 268.657 9.232 41.981 o
-8 -4 -8 529.159 483.271 12.816 15.500 o
-8 -4 -7 295.664 303.697 11.571 32.928 o
-8 -4 -6 1096.040 1107.010 16.797 4.319 o
-8 -4 -5 411.759 405.180 15.510 18.985 o
-8 -4 -4 1044.350 954.841 29.543 4.101 o
-8 -4 -3 825.321 825.910 34.403 4.804 o
-8 -4 -2 1709.550 1797.280 45.382 1.538 o
-8 -4 -1 493.140 555.895 21.917 11.499 o
-8 -3 -12 217.932 213.841 6.705 63.947 o
-8 -3 -11 54.012 57.357 4.793 290.789 o
-8 -3 -10 391.956 362.157 11.813 24.091 o
-8 -3 -9 29.637 32.181 3.435 580.476 o
-8 -3 -8 1142.650 1104.640 28.325 3.578 o
-8 -3 -7 112.618 118.091 4.962 152.902 o
-8 -3 -6 2286.720 2202.250 33.188 1.096 o
-8 -3 -5 467.278 454.338 12.852 17.938 o
-8 -3 -4 3096.480 3091.870 91.097 0.470 o
-8 -3 -3 484.673 466.111 15.936 15.468 o
-8 -3 -2 4447.950 4165.270 243.102 0.139 o
-8 -3 -1 1877.820 2001.090 48.648 1.287 o
-8 -2 -13 50.796 29.954 7.875 173.566 o
-8 -2 -12 474.220 479.990 15.477 15.815 o
-8 -2 -11 163.010 160.049 6.090 94.388 o
-8 -2 -10 978.901 991.073 22.062 4.853 o
-8 -2 -9 509.428 519.956 21.794 11.577 o
-8 -2 -8 1530.850 1522.490 38.849 1.996 o
-8 -2 -7 1166.750 1192.230 25.284 3.509 o
-8 -2 -6 1291.370 1283.480 24.270 3.059 o
-8 -2 -5 2221.080 2339.030 44.980 1.022 o
-8 -2 -4 1084.370 1053.430 19.983 4.335 o
-8 -2 -3 1382.100 1421.780 37.912 2.308 o
-8 -2 -2 443.920 431.749 11.465 20.159 o
-8 -2 -1 901.280 974.148 47.392 3.198 o
-8 -1 -13 147.700 136.825 5.944 108.774 o
-8 -1 -12 210.233 212.897 7.873 61.138 o
-8 -1 -11 218.148 214.199 7.478 60.828 o
-8 -1 -10 227.842 231.178 11.192 44.490 o
-8 -1 -9 628.486 562.807 16.258 11.143 o
-8 -1 -8 180.029 175.087 5.782 86.316 o
-8 -1 -7 1124.650 1119.340 17.989 4.117 o
-8 -1 -6 573.290 582.725 11.086 13.600 o
-8 -1 -5 1763.680 1834.270 43.624 1.501 o
-8 -1 -4 1581.560 1740.920 62.404 1.381 o
-8 -1 -3 3961.210 4008.710 121.151 0.281 o
-8 -1 -2 1069.580 1036.040 32.907 3.654 o
-8 -1 -1 5511.940 5591.260 39.555 0.203 o
-7 -13 -2 395.131 342.340 30.065 10.518 o
-7 -13 -1 94.941 82.893 15.747 47.472 o
-7 -12 -5 183.848 150.539 10.691 59.243 o
-7 -12 -4 130.180 112.360 9.351 86.281 o
-7 -12 -3 124.996 132.369 8.858 89.641 o
-7 -12 -2 170.335 173.639 11.460 55.598 o
-7 -12 -1 42.617 52.184 11.754 89.008 o
-7 -11 -7 219.383 219.973 13.863 37.950 o
-7 -11 -6 71.222 68.426 6.191 192.720 o
-7 -11 -5 795.855 758.040 63.933 2.484 o
-7 -11 -4 181.932 177.450 9.720 62.205 o
-7 -11 -3 1227.200 1127.730 33.983 3.042 o
-7 -11 -2 60.623 52.795 6.463 204.420 o
-7 -11 -1 2018.430 2054.170 38.194 1.278 o
-7 -10 -9 61.933 57.424 5.548 237.219 o
-7 -10 -8 160.832 190.515 13.698 45.612 o
-7 -10 -7 168.798 173.031 10.510 60.929 o
-7 -10 -6 294.252 311.820 13.545 29.334 o
-7 -10 -5 279.547 280.636 19.843 21.405 o
-7 -10 -4 440.557 454.642 17.637 15.823 o
-7 -10 -3 263.915 212.821 15.847 30.174 o
-7 -10 -2 559.572 576.089 25.415 9.229 o
-7 -10 -1 179.593 203.215 19.085 27.957 o
-7 -9 -10 46.570 45.953 4.636 335.112 o
-7 -9 -9 69.527 68.899 5.116 233.523 o
-7 -9 -8 180.832 184.651 13.207 45.707 o
-7 -9 -7 411.811 446.876 26.433 11.459 o
-7 -9 -6 490.710 528.817 15.649 14.630 o
-7 -9 -5 1065.250 1645.420 393.473 0.089 o
-7 -9 -4 1014.100 1088.710 43.464 3.085 o
-7 -9 -3 2107.740 2448.760 72.074 0.850 o
-7 -9 -2 1318.100 1349.280 33.001 2.637 o
-7 -9 -1 3875.500 4265.350 75.760 0.338 o
-7 -8 -11 54.244 55.913 4.573 304.924 o
-7 -8 -10 78.642 75.231 5.545 200.395 o
-7 -8 -9 164.819 170.529 7.898 78.501 o
-7 -8 -8 89.636 84.511 5.506 182.585 o
-7 -8 -7 626.511 654.462 21.236 9.154 o
-7 -8 -6 118.301 118.246 9.206 90.629 o
-7 -8 -5 1016.340 1020.390 23.068 4.530 o
-7 -8 -4 319.838 347.831 14.771 24.966 o
-7 -8 -3 1821.110 2031.510 44.664 1.363 o
-7 -8 -2 305.013 306.765 13.877 28.267 o
-7 -8 -1 2367.190 2626.260 57.481 0.824 o
-7 -7 -11 82.243 74.976 4.936 215.060 o
-7 -7 -10 143.844 133.711 7.373 97.109 o
-7 -7 -9 240.122 224.399 10.838 44.467 o
-7 -7 -8 207.114 226.413 14.671 36.444 o
-7 -7 -7 301.228 340.794 11.038 31.834 o
-7 -7 -6 934.409 985.029 41.512 3.526 o
-7 -7 -5 644.652 622.069 21.891 8.967 o
-7 -7 -4 3817.930 3937.770 136.134 0.272 o
-7 -7 -3 409.975 448.790 13.973 19.424 o
-7 -7 -2 6028.100 5705.800 167.693 0.133 o
-7 -6 -12 115.323 110.323 5.243 149.320 o
-7 -6 -11 49.716 58.255 4.909 292.922 o
-7 -6 -10 355.104 334.698 16.721 21.343 o
-7 -6 -9 130.211 138.632 6.243 114.763 o
-7 -6 -8 677.307 690.433 20.265 8.567 o
-7 -6 -7 538.094 598.413 14.579 13.109 o
-7 -6 -6 1266.590 1256.140 24.203 3.164 o
-7 -6 -5 1292.630 1328.130 19.676 3.133 o
-7 -6 -4 1238.410 1199.440 32.605 2.989 o
-7 -6 -3 1176.310 1215.220 36.440 2.948 o
-7 -6 -2 1272.120 1304.140 31.546 2.832 o
-7 -6 -1 2223.320 2320.990 28.386 1.124 o
-7 -5 -13 104.959 93.310 7.360 127.086 o
-7 -5 -12 85.119 86.586 4.474 216.032 o
-7 -5 -11 405.035 404.780 10.891 23.074 o
-7 -5 -10 140.745 135.591 5.824 114.266 o
-7 -5 -9 919.285 854.002 21.064 5.669 o
-7 -5 -8 196.158 203.837 9.221 59.134 o
-7 -5 -7 2627.520 2607.890 50.211 0.774 o
-7 -5 -6 745.686 725.325 16.503 8.283 o
-7 -5 -5 2426.340 2582.300 77.855 0.700 o
-7 -5 -4 1577.980 1614.730 41.673 1.824 o
-7 -5 -3 4527.990 4857.370 117.034 0.229 o
-7 -5 -2 3333.070 3327.080 128.041 0.340 o
-7 -5 -1 2117.930 2064.090 79.718 0.851 o
-7 -4 -13 361.057 387.642 11.347 25.603 o
-7 -4 -12 136.732 138.963 7.459 98.161 o
-7 -4 -11 743.959 744.189 19.685 7.682 o
-7 -4 -10 600.316 610.382 19.666 10.224 o
-7 -4 -9 245.034 252.636 7.896 50.440 o
-7 -4 -8 2064.330 2114.670 99.790 0.705 o
-7 -4 -7 619.891 641.489 17.869 10.204 o
-7 -4 -6 2840.280 2731.300 105.993 0.484 o
-7 -4 -5 354.486 337.882 15.690 22.437 o
-7 -4 -4 4073.620 3979.690 120.920 0.275 o
-7 -4 -3 187.877 198.424 5.568 80.222 o
-7 -4 -2 3846.690 4060.080 40.144 0.392 o
-7 -4 -1 296.567 304.405 11.446 33.043 o
-7 -3 -13 204.653 200.417 6.893 68.308 o
-7 -3 -12 267.012 267.299 8.006 45.533 o
-7 -3 -11 499.817 495.437 19.459 12.997 o
-7 -3 -10 711.871 696.339 15.961 8.962 o
-7 -3 -9 1570.190 1522.340 32.014 2.085 o
-7 -3 -8 1504.800 1495.710 42.769 1.958 o
-7 -3 -7 3074.130 2831.740 65.786 0.572 o
-7 -3 -6 1030.320 1059.620 16.125 4.784 o
-7 -3 -5 3354.580 3331.470 88.710 0.425 o
-7 -3 -4 180.799 189.724 5.728 83.535 o
-7 -3 -3 1964.730 1968.220 24.172 1.471 o
-7 -3 -2 148.176 158.263 5.240 109.239 o
-7 -3 -1 3553.390 4009.120 115.950 0.318 o
-7 -2 -13 412.651 429.726 17.909 16.756 o
-7 -2 -12 332.959 362.343 12.705 26.487 o
-7 -2 -11 648.935 658.961 16.939 9.877 o
-7 -2 -10 542.949 542.407 11.207 14.893 o
-7 -2 -9 1735.390 1709.200 38.582 1.658 o
-7 -2 -8 408.519 426.519 10.400 22.712 o
-7 -2 -7 1277.770 1295.780 20.194 3.206 o
-7 -2 -6 1162.960 1109.340 27.648 3.541 o
-7 -2 -5 1553.420 1596.070 42.539 1.846 o
-7 -2 -4 2764.560 2573.080 64.095 0.680 o
-7 -2 -3 1507.110 1503.600 55.671 1.659 o
-7 -2 -2 2154.130 2035.570 47.944 1.114 o
-7 -2 -1 632.665 678.883 15.675 10.269 o
-7 -1 -14 193.739 210.888 9.261 58.734 o
-7 -1 -13 278.134 281.782 9.435 39.921 o
-7 -1 -12 850.480 894.847 25.812 5.474 o
-7 -1 -11 556.466 536.764 13.026 13.960 o
-7 -1 -10 2268.240 2087.590 46.734 1.049 o
-7 -1 -9 561.236 575.566 11.872 13.748 o
-7 -1 -8 3369.440 3295.240 68.255 0.472 o
-7 -1 -7 172.579 190.677 6.504 81.749 o
-7 -1 -6 3209.470 3229.300 58.944 0.525 o
-7 -1 -5 560.554 571.145 11.784 13.849 o
-7 -1 -4 1907.200 1899.560 68.691 1.069 o
-7 -1 -3 402.470 433.316 9.744 23.350 o
-7 -1 -2 647.079 662.915 21.361 8.829 o
-7 -1 -1 735.196 780.700 15.309 8.270 o
-6 -13 -5 44.325 31.775 10.238 115.502 o
-6 -13 -4 80.968 68.859 13.503 63.657 o
-6 -13 -3 28.534 21.319 8.550 168.767 o
-6 -13 -2 178.041 148.814 21.378 24.487 o
-6 -12 -7 229.239 219.222 12.999 39.543 o
-6 -12 -6 178.814 167.741 13.953 43.932 o
-6 -12 -5 462.887 458.927 27.471 10.277 o
-6 -12 -4 433.539 407.488 17.261 16.931 o
-6 -12 -3 747.152 756.925 22.511 7.130 o
-6 -12 -2 599.551 637.636 66.597 2.586 o
-6 -12 -1 873.608 939.188 48.620 3.206 o
-6 -11 -9 196.641 134.846 15.496 38.378 o
-6 -11 -8 71.832 69.157 6.018 197.305 o
-6 -11 -7 280.784 247.232 16.493 27.049 o
-6 -11 -6 57.845 54.302 5.775 235.910 o
-6 -11 -5 425.318 432.226 21.670 13.955 o
-6 -11 -4 19.421 11.311 3.655 715.339 o
-6 -11 -3 516.476 503.156 19.134 12.739 o
-6 -11 -2 81.182 87.144 9.717 102.237 o
-6 -11 -1 286.796 311.739 24.983 15.442 o
-6 -10 -10 49.826 45.509 5.691 260.744 o
-6 -10 -9 357.687 311.352 15.926 22.610 o
-6 -10 -8 95.326 100.471 8.257 115.716 o
-6 -10 -7 703.073 775.528 71.192 2.184 o
-6 -10 -6 266.873 307.174 12.019 34.382 o
-6 -10 -4 278.122 300.540 14.225 29.607 o
-6 -10 -3 2242.310 2414.120 45.079 0.992 o
-6 -10 -2 338.700 397.107 13.858 23.837 o
-6 -10 -1 3147.650 3346.120 91.129 0.446 o
-6 -9 -11 171.800 160.927 6.945 84.421 o
-6 -9 -10 130.089 128.458 6.893 109.951 o
-6 -9 -9 382.711 368.202 13.460 22.791 o
-6 -9 -8 196.627 185.761 8.396 64.935 o
-6 -9 -7 587.270 572.975 16.054 11.861 o
-6 -9 -6 294.424 281.931 11.580 33.942 o
-6 -9 -5 388.957 385.113 15.197 20.496 o
-6 -9 -4 127.483 149.229 13.817 51.024 o
-6 -9 -3 410.024 486.239 14.954 18.038 o
-6 -9 -2 55.958 66.641 9.455 120.000 o
-6 -9 -1 192.348 210.698 11.774 48.333 o
-6 -8 -12 146.690 143.866 8.142 86.929 o
-6 -8 -11 63.283 60.275 4.472 283.205 o
-6 -8 -10 423.331 430.551 19.526 15.359 o
-6 -8 -9 351.715 341.027 17.597 20.423 o
-6 -8 -8 1087.420 1128.590 71.082 1.754 o
-6 -8 -7 731.609 713.841 16.013 8.597 o
-6 -8 -6 1965.460 1841.760 59.868 1.154 o
-6 -8 -5 1054.020 1163.880 28.361 3.769 o
-6 -8 -4 3497.350 3555.940 73.015 0.425 o
-6 -8 -2 4277.680 4560.640 66.201 0.300 o
-6 -8 -1 1293.990 1338.280 33.259 2.689 o
-6 -7 -12 397.830 370.570 17.509 18.414 o
-6 -7 -11 41.983 37.217 3.677 455.759 o
-6 -7 -10 807.684 792.249 17.078 7.213 o
-6 -7 -9 113.999 104.345 6.151 137.711 o
-6 -7 -8 1088.750 1080.420 35.483 3.380 o
-6 -7 -7 116.753 120.249 6.170 129.841 o
-6 -7 -6 1563.130 1496.740 35.253 2.048 o
-6 -7 -5 226.160 223.139 9.939 49.398 o
-6 -7 -4 1066.800 1283.260 35.452 3.174 o
-6 -7 -3 206.670 209.823 8.062 61.465 o
-6 -7 -2 627.617 577.437 19.434 10.133 o
-6 -7 -1 500.054 541.279 24.518 10.473 o
-6 -6 -13 84.671 80.496 5.251 198.105 o
-6 -6 -12 350.038 328.898 12.375 26.883 o
-6 -6 -11 203.533 197.270 6.370 71.466 o
-6 -6 -10 861.279 799.258 21.409 6.214 o
-6 -6 -9 525.914 475.613 20.205 12.351 o
-6 -6 -8 1698.910 1579.870 26.773 1.954 o
-6 -6 -7 1238.840 1226.820 40.499 2.637 o
-6 -6 -6 3775.720 3820.020 62.546 0.390 o
-6 -6 -5 1022.910 1045.410 15.677 4.885 o
-6 -6 -4 4647.010 4775.380 58.489 0.269 o
-6 -6 -3 1342.130 1444.300 41.758 2.240 o
-6 -6 -2 6712.280 6658.840 152.004 0.116 o
-6 -6 -1 531.120 557.294 12.104 14.690 o
-6 -5 -14 114.080 96.262 15.179 48.164 o
-6 -5 -13 265.291 263.710 7.762 46.637 o
-6 -5 -12 166.284 154.192 5.635 97.720 o
-6 -5 -11 541.339 532.458 14.855 13.688 o
-6 -5 -10 301.499 312.615 16.921 23.823 o
-6 -5 -9 468.786 468.378 10.265 19.064 o
-6 -5 -8 992.837 883.751 30.990 4.326 o
-6 -5 -7 641.428 677.723 15.474 10.188 o
-6 -5 -6 1168.620 1069.250 48.098 2.573 o
-6 -5 -5 93.211 100.161 4.197 200.993 o
-6 -5 -4 1459.770 1349.340 56.797 1.746 o
-6 -5 -3 2603.280 2606.440 49.957 0.784 o
-6 -5 -2 882.201 827.623 15.909 6.534 o
-6 -5 -1 2346.880 2079.110 44.583 1.026 o
-6 -4 -14 6.351 6.695 2.114 2078.140 o
-6 -4 -13 586.235 613.329 17.012 11.215 o
-6 -4 -12 13.130 15.747 2.418 1271.450 o
-6 -4 -11 1496.680 1556.520 42.158 1.944 o
-6 -4 -10 23.239 25.384 2.545 883.617 o
-6 -4 -9 2032.810 2036.630 63.947 1.029 o
-6 -4 -8 48.669 42.452 4.034 381.252 o
-6 -4 -7 4001.650 3925.930 40.910 0.380 o
-6 -4 -6 104.395 111.084 4.573 171.744 o
-6 -4 -5 5171.240 5189.650 111.836 0.196 o
-6 -4 -4 275.048 275.166 6.386 47.249 o
-6 -4 -3 9565.130 9425.990 407.956 0.039 o
-6 -4 -2 1649.930 1584.370 32.136 1.931 o
-6 -4 -1 8894.670 8550.020 161.762 0.072 o
-6 -3 -14 80.825 90.321 6.315 167.909 o
-6 -3 -13 643.959 663.198 48.436 4.052 o
-6 -3 -12 43.925 52.760 4.275 360.238 o
-6 -3 -11 1041.990 1057.480 31.835 3.775 o
-6 -3 -10 96.271 99.525 4.337 193.862 o
-6 -3 -9 1277.840 1172.690 35.577 2.809 o
-6 -3 -8 42.536 43.690 3.029 505.018 o
-6 -3 -7 841.390 743.253 31.524 5.261 o
-6 -3 -6 417.985 393.090 15.877 18.689 o
-6 -3 -5 901.050 905.208 35.207 4.268 o
-6 -3 -4 255.036 250.527 6.820 51.802 o
-6 -3 -3 982.570 991.859 32.590 4.037 o
-6 -3 -2 144.672 141.089 6.017 108.530 o
-6 -3 -1 3206.450 3110.500 55.077 0.546 o
-6 -2 -14 102.069 109.446 7.397 123.449 o
-6 -2 -13 321.519 325.115 15.336 24.716 o
-6 -2 -12 347.455 359.677 8.910 30.227 o
-6 -2 -11 634.338 632.621 13.565 11.129 o
-6 -2 -10 1209.550 1243.120 26.113 3.271 o
-6 -2 -9 2008.680 2031.790 74.876 0.937 o
-6 -2 -8 2132.450 2131.790 41.078 1.155 o
-6 -2 -7 3392.870 3476.690 34.710 0.511 o
-6 -2 -6 3104.560 2936.680 86.580 0.494 o
-6 -2 -5 8185.990 8578.000 140.850 0.082 o
-6 -2 -4 4676.840 4726.330 81.310 0.253 o
-6 -2 -3 7247.720 7031.210 67.454 0.120 o
-6 -2 -2 5834.130 5887.590 106.843 0.162 o
-6 -2 -1 7937.350 8332.880 242.366 0.070 o
-6 -1 -14 431.735 501.152 20.564 13.758 o
-6 -1 -13 119.564 122.707 5.385 138.445 o
-6 -1 -12 921.460 905.153 31.482 4.529 o
-6 -1 -11 343.886 340.879 9.729 30.268 o
-6 -1 -10 1007.880 1042.750 25.034 4.385 o
-6 -1 -9 1422.340 1334.870 32.755 2.460 o
-6 -1 -8 962.317 952.152 15.439 5.533 o
-6 -1 -7 1336.290 1320.960 22.282 2.956 o
-6 -1 -6 587.626 614.896 12.902 12.384 o
-6 -1 -5 396.173 378.471 10.274 24.831 o
-6 -1 -4 51.684 45.457 3.102 440.616 o
-6 -1 -3 486.734 488.522 11.290 17.481 o
-6 -1 -2 498.242 471.213 9.579 18.181 o
-6 -1 -1 767.249 856.358 41.695 4.172 o
-5 -13 -6 276.604 274.107 24.318 16.591 o
-5 -13 -5 221.535 243.943 23.703 18.715 o
-5 -12 -8 350.785 329.626 13.403 25.528 o
-5 -12 -7 80.424 74.064 6.342 175.434 o
-5 -12 -6 499.305 490.798 40.044 6.118 o
-5 -12 -5 75.517 70.413 6.362 181.667 o
-5 -12 -4 274.015 251.031 13.475 33.099 o
-5 -12 -3 158.591 138.850 12.727 53.402 o
-5 -12 -1 250.653 274.376 17.957 25.391 o
-5 -11 -10 35.186 28.661 9.048 147.550 o
-5 -11 -9 357.799 367.546 18.224 19.131 o
-5 -11 -7 662.928 693.737 34.006 5.965 o
-5 -11 -6 14.567 14.074 3.619 762.182 o
-5 -11 -5 1140.950 1225.410 49.343 2.440 o
-5 -11 -4 23.135 23.600 4.215 523.200 o
-5 -11 -3 1286.220 1330.830 29.686 2.835 o
-5 -11 -2 108.797 101.625 7.698 117.247 o
-5 -11 -1 1231.660 1290.280 33.726 2.855 o
-5 -10 -11 464.614 478.611 19.775 13.733 o
-5 -10 -10 254.663 248.257 9.759 44.135 o
-5 -10 -9 635.261 622.258 18.662 9.912 o
-5 -10 -8 412.062 464.903 34.859 8.010 o
-5 -10 -7 491.113 487.402 21.045 12.498 o
-5 -10 -6 420.682 431.415 28.227 10.600 o
-5 -10 -5 223.384 231.678 12.408 41.241 o
-5 -10 -4 246.743 228.723 10.333 44.846 o
-5 -10 -3 125.006 114.160 8.673 94.810 o
-5 -10 -2 102.661 114.357 11.918 69.413 o
-5 -10 -1 57.366 59.204 10.207 107.348 o
-5 -9 -12 359.851 370.217 21.216 16.409 o
-5 -9 -11 192.427 201.131 10.922 52.483 o
-5 -9 -10 448.184 433.779 12.153 19.486 o
-5 -9 -9 487.519 467.857 12.639 17.124 o
-5 -9 -8 693.075 714.257 17.931 8.715 o
-5 -9 -7 970.860 948.013 18.130 5.305 o
-5 -9 -6 569.185 609.993 18.236 11.152 o
-5 -9 -5 1041.020 1139.400 103.260 1.044 o
-5 -9 -4 643.935 648.409 35.953 5.847 o
-5 -9 -3 1314.210 1194.750 34.920 2.735 o
-5 -9 -2 585.029 607.979 17.000 11.286 o
-5 -9 -1 1482.150 1547.350 49.107 1.808 o
-5 -8 -12 531.195 547.172 36.135 6.683 o
-5 -8 -11 373.354 362.906 9.988 27.030 o
-5 -8 -10 734.554 745.770 23.750 7.079 o
-5 -8 -9 651.965 771.932 25.485 7.350 o
-5 -8 -8 862.946 815.987 16.351 6.699 o
-5 -8 -7 566.055 501.725 16.073 13.003 o
-5 -8 -6 973.782 981.310 50.103 2.879 o
-5 -8 -5 727.405 648.276 47.035 4.016 o
-5 -8 -4 37.846 40.838 4.631 370.454 o
-5 -8 -3 337.917 309.072 8.345 33.998 o
-5 -8 -2 86.823 74.813 6.682 160.372 o
-5 -8 -1 51.154 48.368 5.556 263.140 o
-5 -7 -13 201.961 200.149 13.739 40.830 o
-5 -7 -12 559.786 649.278 35.079 6.463 o
-5 -7 -11 240.754 239.968 8.274 51.130 o
-5 -7 -10 1107.730 1060.400 21.659 4.132 o
-5 -7 -9 267.104 271.778 8.102 44.971 o
-5 -7 -8 1853.930 1905.720 56.159 1.244 o
-5 -7 -7 13.489 17.161 2.944 993.061 o
-5 -7 -6 2811.870 2901.470 101.892 0.491 o
-5 -7 -5 184.788 192.304 10.378 56.925 o
-5 -7 -4 3138.200 3599.530 56.849 0.509 o
-5 -7 -3 231.288 220.459 10.007 48.602 o
-5 -7 -2 2933.090 3163.030 44.760 0.625 o
-5 -7 -1 63.060 57.288 4.389 291.568 o
-5 -6 -14 317.058 320.562 19.123 20.340 o
-5 -6 -13 275.467 316.499 32.468 10.575 o
-5 -6 -12 433.980 480.081 20.883 13.750 o
-5 -6 -11 878.298 954.361 43.569 3.554 o
-5 -6 -10 567.689 553.961 12.391 13.688 o
-5 -6 -9 1257.530 1213.770 38.133 2.707 o
-5 -6 -8 494.227 484.158 12.919 16.497 o
-5 -6 -7 2220.910 2066.890 27.418 1.212 o
-5 -6 -6 181.941 198.888 12.116 49.111 o
-5 -6 -5 3182.450 2995.220 61.147 0.547 o
-5 -6 -4 128.345 125.637 5.570 128.340 o
-5 -6 -3 1311.210 1242.750 22.871 3.105 o
-5 -6 -2 628.805 622.439 14.292 11.141 o
-5 -6 -1 321.866 333.306 9.057 33.372 o
-5 -5 -14 13.009 12.725 2.632 1202.190 o
-5 -5 -13 282.190 316.727 14.230 28.817 o
-5 -5 -12 174.880 179.175 7.350 77.622 o
-5 -5 -11 579.459 624.653 29.034 7.797 o
-5 -5 -10 955.585 948.430 23.737 4.951 o
-5 -5 -9 1234.510 1320.700 25.452 3.120 o
-5 -5 -8 1350.810 1409.730 30.866 2.579 o
-5 -5 -7 1864.720 1856.780 50.593 1.322 o
-5 -5 -6 3587.510 3508.080 68.835 0.424 o
-5 -5 -5 4192.360 4123.590 152.667 0.227 o
-5 -5 -4 6641.620 6252.660 177.361 0.113 o
-5 -5 -3 3855.860 3846.670 60.193 0.382 o
-5 -5 -2 3996.890 3868.240 68.437 0.355 o
-5 -5 -1 7013.250 7261.720 120.627 0.112 o
-5 -4 -14 55.470 63.152 3.972 327.863 o
-5 -4 -13 323.798 304.024 10.634 32.124 o
-5 -4 -12 121.973 126.453 7.004 113.362 o
-5 -4 -11 965.803 1025.240 31.779 4.098 o
-5 -4 -10 159.216 171.919 8.054 78.928 o
-5 -4 -9 2253.690 2036.550 60.055 0.966 o
-5 -4 -8 448.825 457.007 9.966 20.323 o
-5 -4 -7 2170.130 2162.160 71.871 0.880 o
-5 -4 -6 1081.150 1014.350 26.283 4.064 o
-5 -4 -5 1703.810 1576.540 44.966 1.652 o
-5 -4 -4 3925.360 3773.360 122.119 0.290 o
-5 -4 -3 1835.290 1849.280 101.870 0.771 o
-5 -4 -2 5672.480 5900.320 41.378 0.188 o
-5 -4 -1 1203.120 1244.690 15.734 3.657 o
-5 -3 -15 35.498 33.381 3.157 574.378 o
-5 -3 -14 98.449 104.051 6.544 142.403 o
-5 -3 -13 313.736 321.439 11.263 31.254 o
-5 -3 -12 37.502 55.384 10.248 113.697 o
-5 -3 -11 795.850 784.378 17.496 7.308 o
-5 -3 -10 167.975 173.307 6.815 84.471 o
-5 -3 -9 2052.510 2044.240 52.973 1.123 o
-5 -3 -8 264.970 253.414 6.451 50.662 o
-5 -3 -7 5774.030 5801.230 90.678 0.171 o
-5 -3 -6 894.806 910.708 38.374 3.998 o
-5 -3 -5 12850.000 12751.400 115.609 0.038 o
-5 -3 -4 1260.400 1228.380 26.808 3.125 o
-5 -3 -3 19157.300 19808.100 246.488 0.016 o
-5 -3 -2 287.133 329.068 9.176 36.807 o
-5 -3 -1 19279.900 19725.800 338.020 0.015 o
-5 -2 -15 133.248 134.801 5.726 120.135 o
-5 -2 -14 73.540 92.584 8.935 116.474 o
-5 -2 -13 208.009 218.192 7.115 64.200 o
-5 -2 -12 155.090 164.624 6.017 97.494 o
-5 -2 -11 208.635 219.224 7.358 62.919 o
-5 -2 -10 406.496 396.904 13.049 21.387 o
-5 -2 -9 238.319 242.576 6.753 55.977 o
-5 -2 -8 2069.150 2038.480 30.330 1.311 o
-5 -2 -7 273.814 276.418 6.956 46.169 o
-5 -2 -6 3425.320 3399.680 77.134 0.437 o
-5 -2 -5 1278.950 1276.350 14.792 3.376 o
-5 -2 -4 4344.520 4770.080 128.561 0.230 o
-5 -2 -3 3829.040 3773.720 62.886 0.386 o
-5 -2 -2 3436.340 3259.390 42.302 0.513 o
-5 -2 -1 14121.800 14085.900 208.392 0.030 o
-5 -1 -15 19.304 21.948 2.745 917.973 o
-5 -1 -14 110.371 109.043 4.986 158.916 o
-5 -1 -13 21.958 21.037 2.688 898.811 o
-5 -1 -12 394.992 393.849 11.693 23.197 o
-5 -1 -11 178.129 186.660 6.848 78.460 o
-5 -1 -10 851.109 889.197 20.673 6.048 o
-5 -1 -9 1030.650 1017.010 13.400 5.036 o
-5 -1 -8 3136.620 3291.420 80.556 0.478 o
-5 -1 -7 3883.820 3783.540 38.597 0.406 o
-5 -1 -6 6903.540 6842.310 180.372 0.103 o
-5 -1 -5 5315.300 5117.090 87.757 0.205 o
-5 -1 -4 12249.700 11969.000 390.199 0.030 o
-5 -1 -3 7085.930 6940.990 68.502 0.124 o
-5 -1 -2 24244.800 24816.800 296.794 0.010 o
-5 -1 -1 8319.240 8514.880 148.576 0.080 o
-4 -13 -8 135.323 117.248 15.939 42.154 o
-4 -13 -7 182.459 140.342 17.457 33.278 o
-4 -13 -6 146.715 50.579 12.610 62.181 o
-4 -13 -5 448.174 376.485 28.637 10.417 o
-4 -12 -9 510.563 497.998 31.212 8.293 o
-4 -12 -8 62.552 57.579 6.596 194.647 o
-4 -12 -7 622.025 481.575 42.304 5.223 o
-4 -12 -6 167.286 160.583 10.256 63.907 o
-4 -12 -5 417.346 398.214 52.645 4.304 o
-4 -12 -4 321.144 312.072 22.610 16.816 o
-4 -12 -3 178.641 159.583 18.935 29.274 o
-4 -12 -2 728.437 815.210 42.478 4.273 o
-4 -12 -1 118.489 122.489 17.022 38.969 o
-4 -11 -11 106.117 114.851 15.664 45.717 o
-4 -11 -10 377.087 352.053 16.845 20.046 o
-4 -11 -9 49.723 58.467 10.019 113.314 o
-4 -11 -8 513.240 477.529 20.312 12.519 o
-4 -11 -7 60.655 39.021 6.557 208.784 o
-4 -11 -6 926.004 858.039 196.169 0.348 o
-4 -11 -5 41.387 46.230 5.161 310.434 o
-4 -11 -4 1216.980 1124.580 25.540 3.447 o
-4 -11 -3 59.167 62.990 5.849 224.267 o
-4 -11 -2 1100.900 1192.720 34.853 3.233 o
-4 -11 -1 39.402 36.132 6.583 236.257 o
-4 -10 -12 322.851 292.177 25.629 14.466 o
-4 -10 -11 188.658 187.249 9.121 62.885 o
-4 -10 -10 703.495 670.276 31.008 6.317 o
-4 -10 -9 602.542 664.331 29.202 7.409 o
-4 -10 -8 786.485 794.732 41.836 4.193 o
-4 -10 -7 1003.810 1066.720 66.918 1.989 o
-4 -10 -6 283.731 266.377 12.097 34.530 o
-4 -10 -5 1042.790 943.113 28.839 4.180 o
-4 -10 -4 184.798 203.707 19.848 26.196 o
-4 -10 -3 820.205 910.708 34.481 4.641 o
-4 -10 -2 239.074 268.021 10.861 41.868 o
-4 -10 -1 346.792 392.983 14.454 22.889 o
-4 -9 -12 234.199 244.918 10.076 46.216 o
-4 -9 -11 253.142 263.456 18.384 24.825 o
-4 -9 -10 438.353 438.517 11.805 20.025 o
-4 -9 -9 323.969 314.132 16.828 22.929 o
-4 -9 -8 663.664 776.844 42.425 4.548 o
-4 -9 -7 544.380 577.235 15.458 12.887 o
-4 -9 -6 1139.630 1162.590 19.543 3.905 o
-4 -9 -5 541.245 478.360 17.684 13.121 o
-4 -9 -4 1357.630 1336.950 25.854 2.786 o
-4 -9 -3 926.193 917.303 28.201 4.783 o
-4 -9 -2 1667.740 1472.940 52.566 1.594 o
-4 -9 -1 976.928 1023.860 22.538 4.746 o
-4 -8 -13 323.722 519.632 52.718 4.354 o
-4 -8 -12 368.090 355.568 26.872 12.452 o
-4 -8 -11 636.171 644.585 25.606 8.036 o
-4 -8 -10 607.299 579.114 21.048 9.940 o
-4 -8 -9 779.148 739.958 33.753 5.288 o
-4 -8 -8 1421.710 1381.590 49.916 1.946 o
-4 -8 -7 753.123 692.486 75.070 2.002 o
-4 -8 -6 1900.050 1943.370 41.538 1.372 o
-4 -8 -5 1282.190 1264.750 35.281 2.716 o
-4 -8 -4 963.169 1029.970 17.377 5.161 o
-4 -8 -3 57.742 56.748 3.699 347.764 o
-4 -8 -2 1449.530 1498.400 61.993 1.571 o
-4 -8 -1 13.966 16.222 4.466 553.548 o
-4 -7 -14 155.346 165.070 12.302 54.220 o
-4 -7 -13 333.685 352.298 15.279 23.533 o
-4 -7 -12 193.253 212.936 10.561 52.954 o
-4 -7 -11 664.984 731.316 19.452 8.643 o
-4 -7 -10 134.466 132.410 11.348 66.089 o
-4 -7 -9 1408.550 1343.940 20.019 2.808 o
-4 -7 -8 208.949 221.525 8.870 56.433 o
-4 -7 -7 2722.950 2567.980 46.175 0.766 o
-4 -7 -6 104.254 110.805 7.433 121.262 o
-4 -7 -5 3775.250 3535.350 88.494 0.366 o
-4 -7 -4 201.009 201.932 8.398 62.092 o
-4 -7 -3 3904.960 3985.710 113.768 0.296 o
-4 -7 -2 126.619 126.468 6.714 114.507 o
-4 -7 -1 5061.160 5043.180 102.119 0.210 o
-4 -6 -14 145.128 126.044 10.191 73.028 o
-4 -6 -13 385.353 418.069 12.694 22.183 o
-4 -6 -12 532.970 550.132 17.835 12.497 o
-4 -6 -11 542.937 525.687 17.962 12.491 o
-4 -6 -10 1644.480 1601.910 33.877 1.897 o
-4 -6 -9 519.502 488.613 13.852 15.236 o
-4 -6 -8 3100.440 2956.650 42.056 0.616 o
-4 -6 -7 653.133 597.024 24.683 8.323 o
-4 -6 -6 3871.910 3725.570 49.111 0.401 o
-4 -6 -5 1117.630 1091.900 32.331 3.460 o
-4 -6 -4 2793.770 2741.400 81.729 0.582 o
-4 -6 -3 2587.930 2715.040 80.720 0.632 o
-4 -6 -2 443.567 453.371 14.656 17.658 o
-4 -6 -1 3873.340 3949.900 122.630 0.287 o
-4 -5 -15 31.178 35.861 4.332 436.001 o
-4 -5 -14 467.562 498.315 22.894 11.948 o
-4 -5 -13 74.681 81.080 5.584 200.485 o
-4 -5 -12 834.084 868.481 36.769 4.431 o
-4 -5 -11 233.830 226.576 11.815 42.149 o
-4 -5 -10 572.793 553.703 29.295 8.086 o
-4 -5 -9 1205.080 1235.270 46.183 2.461 o
-4 -5 -8 1725.620 1744.910 69.219 1.190 o
-4 -5 -7 3091.730 2916.310 89.476 0.489 o
-4 -5 -6 2383.990 2473.850 37.424 0.954 o
-4 -5 -5 4351.540 4223.310 46.169 0.323 o
-4 -5 -4 4395.680 4465.450 108.833 0.254 o
-4 -5 -3 4439.090 4065.260 135.228 0.236 o
-4 -5 -2 10611.500 10956.700 212.950 0.048 o
-4 -5 -1 7226.500 7570.560 159.470 0.098 o
-4 -4 -15 59.139 60.589 6.128 214.525 o
-4 -4 -14 275.947 278.713 10.449 38.157 o
-4 -4 -13 171.445 164.448 7.966 76.950 o
-4 -4 -12 968.833 984.151 37.663 3.715 o
-4 -4 -11 142.531 145.281 6.975 99.065 o
-4 -4 -10 2176.840 2334.360 76.736 0.812 o
-4 -4 -9 435.730 380.375 8.994 23.522 o
-4 -4 -8 3632.490 3614.910 28.982 0.464 o
-4 -4 -7 1355.180 1371.450 32.234 2.567 o
-4 -4 -6 1689.280 1582.920 35.056 1.834 o
-4 -4 -5 3186.020 3225.590 67.538 0.509 o
-4 -4 -4 1308.610 1478.850 68.985 1.526 o
-4 -4 -3 4904.280 5040.540 173.683 0.167 o
-4 -4 -2 5734.430 6276.730 232.969 0.107 o
-4 -4 -1 11605.400 11869.600 195.240 0.042 o
-4 -3 -15 135.646 151.057 6.547 105.223 o
-4 -3 -14 85.654 94.215 5.802 174.077 o
-4 -3 -13 297.323 282.356 8.704 39.124 o
-4 -3 -12 419.882 424.908 19.121 15.784 o
-4 -3 -11 472.615 465.988 11.971 18.038 o
-4 -3 -10 1832.850 1877.620 34.123 1.541 o
-4 -3 -9 1115.400 1117.630 22.104 3.966 o
-4 -3 -8 3377.940 3099.210 42.433 0.539 o
-4 -3 -7 1250.120 1254.060 36.930 2.729 o
-4 -3 -6 8938.840 9075.320 109.800 0.075 o
-4 -3 -5 1458.160 1429.880 15.427 2.683 o
-4 -3 -4 27655.400 26847.200 276.348 0.008 o
-4 -3 -3 2015.870 1881.270 59.149 1.124 o
-4 -3 -2 24600.700 24188.900 486.650 0.009 o
-4 -3 -1 25.343 33.132 2.010 919.170 o
-4 -2 -15 137.228 139.020 6.379 109.268 o
-4 -2 -14 211.586 221.816 9.409 53.807 o
-4 -2 -13 253.222 258.629 16.477 28.242 o
-4 -2 -12 182.445 203.571 15.147 37.912 o
-4 -2 -11 541.207 525.450 13.108 14.464 o
-4 -2 -10 494.253 502.614 9.936 17.586 o
-4 -2 -9 1083.790 1007.880 22.670 4.285 o
-4 -2 -8 580.368 613.069 12.992 12.533 o
-4 -2 -7 2225.670 2185.630 77.821 0.812 o
-4 -2 -6 1341.680 1385.120 25.729 2.771 o
-4 -2 -5 3128.700 3147.460 67.948 0.525 o
-4 -2 -4 7253.990 7558.790 83.540 0.112 o
-4 -2 -3 7607.250 7452.700 162.951 0.093 o
-4 -2 -2 14034.600 14759.600 196.067 0.029 o
-4 -2 -1 4149.820 4242.510 69.045 0.322 o
-4 -1 -16 25.809 21.815 3.779 587.632 o
-4 -1 -15 80.970 90.249 5.984 176.342 o
-4 -1 -14 32.612 34.508 3.131 596.815 o
-4 -1 -13 279.910 302.934 13.252 31.150 o
-4 -1 -12 92.828 82.650 4.932 194.921 o
-4 -1 -11 952.712 964.758 25.892 4.747 o
-4 -1 -10 1101.340 1072.850 18.216 4.306 o
-4 -1 -9 1971.970 1904.140 25.128 1.487 o
-4 -1 -8 3993.340 4009.970 34.543 0.381 o
-4 -1 -7 6322.650 6579.510 164.102 0.120 o
-4 -1 -6 9298.790 9265.380 89.766 0.072 o
-4 -1 -5 11496.800 12004.200 139.615 0.045 o
-4 -1 -4 8564.960 8130.210 104.922 0.085 o
-4 -1 -3 20086.100 21344.000 255.295 0.014 o
-4 -1 -2 13064.000 13616.800 89.512 0.036 o
-4 -1 -1 28580.800 28183.500 642.596 0.007 o
-3 -12 -8 391.756 479.444 30.218 9.796 o
-3 -12 -7 557.289 511.311 42.827 5.316 o
-3 -12 -6 562.832 403.430 28.789 9.019 o
-3 -12 -5 890.843 708.407 36.966 4.497 o
-3 -12 -4 808.066 923.672 43.596 3.775 o
-3 -12 -3 883.105 799.722 40.456 4.022 o
-3 -11 -11 8.298 5.377 2.829 1325.240 o
-3 -11 -10 187.939 193.348 16.661 33.543 o
-3 -11 -9 59.028 63.676 7.851 156.014 o
-3 -11 -8 218.873 186.013 12.195 44.998 o
-3 -11 -7 124.809 128.096 10.309 76.743 o
-3 -11 -6 374.173 387.518 36.180 8.068 o
-3 -11 -5 46.210 56.916 6.316 226.130 o
-3 -11 -4 247.645 238.597 14.685 32.893 o
-3 -11 -3 82.543 74.845 9.183 112.258 o
-3 -11 -2 139.657 166.609 13.181 51.757 o
-3 -11 -1 43.091 50.455 8.221 160.756 o
-3 -10 -12 168.029 170.634 12.867 49.459 o
-3 -10 -11 11.458 8.654 5.704 387.530 o
-3 -10 -10 456.979 430.819 15.458 17.073 o
-3 -10 -9 100.851 95.186 11.482 75.419 o
-3 -10 -8 899.541 866.792 15.463 6.280 o
-3 -10 -7 243.969 248.536 16.066 29.852 o
-3 -10 -6 2619.380 2592.850 36.981 0.832 o
-3 -10 -5 644.629 559.554 77.642 1.998 o
-3 -10 -4 4416.530 4274.930 251.061 0.133 o
-3 -10 -3 704.615 757.392 33.411 5.668 o
-3 -10 -2 6688.590 6567.060 130.115 0.123 o
-3 -10 -1 609.326 675.364 24.968 8.300 o
-3 -9 -13 42.388 41.371 5.591 284.663 o
-3 -9 -12 90.566 94.197 6.439 154.625 o
-3 -9 -11 120.810 123.448 7.214 112.076 o
-3 -9 -10 249.368 247.193 11.858 39.243 o
-3 -9 -9 413.690 387.569 39.407 6.895 o
-3 -9 -8 348.397 327.690 11.544 28.092 o
-3 -9 -7 403.187 402.423 16.802 18.299 o
-3 -9 -6 868.581 893.425 26.505 5.301 o
-3 -9 -5 1181.630 1221.940 42.026 2.685 o
-3 -9 -4 777.526 770.446 16.525 7.689 o
-3 -9 -3 343.044 373.658 13.305 24.856 o
-3 -9 -2 340.993 422.149 17.895 19.092 o
-3 -9 -1 88.198 81.915 6.485 160.858 o
-3 -8 -13 105.142 103.005 7.658 119.426 o
-3 -8 -12 31.916 32.779 4.123 465.167 o
-3 -8 -11 378.650 378.470 16.883 19.478 o
-3 -8 -10 84.901 80.179 6.438 165.746 o
-3 -8 -9 775.467 781.852 15.082 7.846 o
-3 -8 -8 445.805 451.173 19.734 14.465 o
-3 -8 -7 3217.470 3234.260 33.971 0.572 o
-3 -8 -6 1822.830 1895.010 124.067 0.603 o
-3 -8 -5 6456.060 7934.590 75.922 0.126 o
-3 -8 -4 1887.070 1977.300 160.387 0.411 o
-3 -8 -3 12426.200 12503.700 274.744 0.034 o
-3 -8 -2 2247.850 2530.290 34.569 1.021 o
-3 -8 -1 15389.300 16097.600 94.000 0.026 o
-3 -7 -14 0.528 2.287 2.523 2089.260 o
-3 -7 -13 193.081 159.291 13.228 45.675 o
-3 -7 -12 61.032 59.886 5.130 255.818 o
-3 -7 -11 650.364 658.280 25.123 7.948 o
-3 -7 -10 207.970 191.140 7.031 68.027 o
-3 -7 -9 1520.520 1542.240 23.111 2.317 o
-3 -7 -8 480.743 446.933 12.153 17.988 o
-3 -7 -7 2438.970 2466.450 77.024 0.717 o
-3 -7 -6 747.251 850.651 20.050 7.097 o
-3 -7 -5 1270.180 1206.180 41.537 2.558 o
-3 -7 -4 1105.920 1117.020 20.535 4.081 o
-3 -7 -3 2727.270 2332.010 149.938 0.372 o
-3 -7 -2 216.975 207.588 9.178 55.014 o
-3 -7 -1 2828.990 3015.920 76.910 0.566 o
-3 -6 -15 60.686 68.913 8.393 139.705 o
-3 -6 -14 26.919 31.123 4.069 502.998 o
-3 -6 -13 236.710 266.370 11.630 40.165 o
-3 -6 -12 210.452 222.669 9.249 54.551 o
-3 -6 -11 587.828 624.203 15.618 11.506 o
-3 -6 -10 574.397 582.748 12.654 13.103 o
-3 -6 -9 1351.060 1326.510 23.720 2.873 o
-3 -6 -8 1466.420 1343.560 43.700 2.081 o
-3 -6 -7 2442.710 2347.060 36.031 0.963 o
-3 -6 -6 2846.650 2732.330 42.810 0.713 o
-3 -6 -5 9346.620 10024.800 428.526 0.037 o
-3 -6 -4 5484.960 5050.540 48.136 0.215 o
-3 -6 -3 20862.300 21850.900 145.082 0.014 o
-3 -6 -2 4434.180 4202.790 121.201 0.247 o
-3 -6 -1 20534.200 20763.900 90.449 0.015 o
-3 -5 -15 91.523 111.307 7.084 134.697 o
-3 -5 -14 349.760 357.479 18.292 19.499 o
-3 -5 -13 350.748 365.708 26.742 12.704 o
-3 -5 -12 678.205 657.618 16.241 9.623 o
-3 -5 -11 846.489 835.130 18.549 6.518 o
-3 -5 -10 622.040 650.250 23.741 8.601 o
-3 -5 -9 1745.300 1779.500 54.340 1.382 o
-3 -5 -8 663.791 622.707 34.876 6.001 o
-3 -5 -7 3699.340 4010.000 52.289 0.401 o
-3 -5 -6 187.359 174.323 11.768 51.542 o
-3 -5 -5 5060.910 5434.110 46.513 0.228 o
-3 -5 -4 355.398 357.185 8.651 29.983 o
-3 -5 -3 4248.480 3838.980 260.555 0.133 o
-3 -5 -2 2156.650 2071.880 85.394 0.793 o
-3 -5 -1 2614.840 2733.580 93.053 0.570 o
-3 -4 -15 29.002 35.062 4.804 393.560 o
-3 -4 -14 448.435 476.473 17.692 15.297 o
-3 -4 -13 52.716 60.299 4.881 285.380 o
-3 -4 -12 965.031 1006.460 18.279 5.157 o
-3 -4 -11 6.775 8.820 2.370 1698.490 o
-3 -4 -10 3000.580 2861.020 24.302 0.691 o
-3 -4 -9 23.434 32.092 3.769 569.506 o
-3 -4 -8 7924.510 8055.280 279.210 0.065 o
-3 -4 -7 431.408 478.301 13.916 18.127 o
-3 -4 -6 13524.600 12978.500 200.482 0.033 o
-3 -4 -5 889.231 937.218 11.748 6.368 o
-3 -4 -4 17739.100 16258.100 546.602 0.015 o
-3 -4 -3 710.466 717.336 26.315 6.941 o
-3 -4 -2 16811.300 17087.100 231.332 0.021 o
-3 -4 -1 2190.080 2189.560 114.363 0.584 o
-3 -3 -16 390.339 396.476 12.134 22.972 o
-3 -3 -15 92.619 111.785 22.933 24.270 o
-3 -3 -14 891.786 903.084 22.132 5.584 o
-3 -3 -13 218.191 198.067 9.110 55.934 o
-3 -3 -12 2257.550 2303.730 30.294 1.100 o
-3 -3 -10 3530.740 3554.120 117.312 0.336 o
-3 -3 -9 217.912 222.493 6.147 64.973 o
-3 -3 -8 3832.150 3710.810 51.404 0.404 o
-3 -3 -7 298.093 286.404 7.006 41.874 o
-3 -3 -6 2352.590 2352.740 37.161 0.999 o
-3 -3 -5 1791.040 1826.350 24.956 1.711 o
-3 -3 -4 813.768 736.152 34.161 5.082 o
-3 -3 -3 3621.190 4038.680 81.888 0.367 o
-3 -3 -2 6233.510 6837.390 405.355 0.055 o
-3 -3 -1 2352.060 2541.310 87.451 0.670 o
-3 -2 -16 170.301 166.503 7.327 81.319 o
-3 -2 -15 42.268 44.392 4.668 347.663 o
-3 -2 -14 358.603 381.088 12.465 24.739 o
-3 -2 -13 437.420 431.796 16.709 16.835 o
-3 -2 -12 1088.360 1046.140 24.022 4.109 o
-3 -2 -11 885.884 839.237 45.049 3.561 o
-3 -2 -10 2103.360 2036.480 50.679 1.118 o
-3 -2 -9 4074.520 3929.990 53.935 0.360 o
-3 -2 -8 4550.150 4511.610 110.602 0.243 o
-3 -2 -7 9182.220 9265.710 93.520 0.072 o
-3 -2 -6 12714.300 12496.200 241.820 0.035 o
-3 -2 -5 6777.700 6581.440 127.900 0.122 o
-3 -2 -4 13664.000 13882.700 436.123 0.023 o
-3 -2 -3 9682.280 9703.820 117.157 0.064 o
-3 -2 -2 17048.300 19076.100 389.407 0.017 o
-3 -2 -1 12620.100 12398.500 199.886 0.037 o
-3 -1 -16 102.824 110.055 5.138 163.072 o
-3 -1 -15 891.990 832.924 40.163 3.970 o
-3 -1 -14 300.644 320.278 10.674 33.346 o
-3 -1 -13 1759.220 1728.520 51.874 1.427 o
-3 -1 -12 604.307 619.660 18.051 10.560 o
-3 -1 -11 2740.750 2762.920 82.454 0.587 o
-3 -1 -10 1562.430 1529.830 25.562 2.213 o
-3 -1 -9 3287.840 3321.480 59.179 0.502 o
-3 -1 -8 1445.660 1380.430 33.980 2.346 o
-3 -1 -7 1553.550 1485.850 32.169 2.134 o
-3 -1 -6 1719.040 1735.400 29.433 1.793 o
-3 -1 -5 574.495 606.488 7.703 14.127 o
-3 -1 -4 1546.870 1555.120 26.720 2.197 o
-3 -1 -3 83.287 83.780 3.804 242.302 o
-3 -1 -2 2333.220 2328.810 34.642 1.028 o
-3 -1 -1 1965.040 2080.110 84.999 0.852 o
-2 -12 -10 81.068 76.683 11.299 83.593 o
-2 -12 -6 645.637 708.341 36.122 5.662 o
-2 -12 -5 185.639 169.161 17.872 31.248 o
-2 -11 -11 62.821 60.929 5.385 240.102 o
-2 -11 -10 52.989 55.574 5.408 261.023 o
-2 -11 -9 74.615 70.603 6.994 164.528 o
-2 -11 -8 399.072 392.465 20.412 15.802 o
-2 -11 -7 205.190 165.881 11.967 48.830 o
-2 -11 -6 1128.020 887.328 29.997 3.890 o
-2 -11 -5 183.243 213.079 69.492 2.834 o
-2 -11 -4 2506.620 3035.510 563.022 0.042 o
-2 -11 -3 54.000 53.959 10.759 100.301 o
-2 -11 -2 5917.880 5943.240 103.017 0.160 o
-2 -10 -12 76.025 69.556 6.408 180.216 o
-2 -10 -11 49.768 53.814 6.017 237.281 o
-2 -10 -10 167.872 173.158 8.467 73.424 o
-2 -10 -9 139.252 160.099 9.983 71.941 o
-2 -10 -8 449.289 451.955 12.105 19.110 o
-2 -10 -7 900.176 901.218 20.362 5.707 o
-2 -10 -6 1124.640 1149.610 24.377 3.762 o
-2 -10 -5 1418.110 1461.330 40.785 2.145 o
-2 -10 -4 936.092 827.523 75.972 1.802 o
-2 -10 -3 2856.690 2955.670 81.988 0.549 o
-2 -10 -2 586.471 482.109 18.739 11.786 o
-2 -10 -1 2430.720 2470.680 56.020 0.837 o
-2 -9 -13 37.719 34.356 4.789 367.102 o
-2 -9 -12 43.271 55.205 6.186 237.675 o
-2 -9 -11 44.933 52.766 4.933 309.436 o
-2 -9 -10 158.057 177.795 15.406 40.020 o
-2 -9 -9 217.877 211.267 9.276 54.139 o
-2 -9 -8 278.307 272.941 8.388 42.704 o
-2 -9 -7 458.188 497.034 15.764 15.868 o
-2 -9 -6 1101.740 1003.940 36.291 3.401 o
-2 -9 -5 2040.740 2053.010 45.659 1.196 o
-2 -9 -4 5666.340 5324.330 90.419 0.184 o
-2 -9 -3 4215.350 4188.890 192.927 0.184 o
-2 -9 -2 7355.100 7516.410 247.247 0.078 o
-2 -9 -1 7593.890 7023.120 209.933 0.086 o
-2 -8 -14 22.845 20.711 4.335 513.507 o
-2 -8 -13 97.984 102.509 6.460 144.930 o
-2 -8 -12 95.887 101.994 6.540 145.175 o
-2 -8 -11 232.717 205.202 16.419 31.053 o
-2 -8 -10 476.682 466.391 15.059 16.172 o
-2 -8 -9 648.014 725.655 33.787 5.997 o
-2 -8 -8 842.792 915.060 73.251 1.937 o
-2 -8 -7 1133.600 1109.430 33.622 3.321 o
-2 -8 -6 1663.540 1672.450 32.760 1.849 o
-2 -8 -5 1393.440 1326.660 29.443 2.617 o
-2 -8 -4 3964.280 3652.520 94.795 0.333 o
-2 -8 -3 1824.300 1930.440 28.239 1.587 o
-2 -8 -2 4544.020 4279.100 77.864 0.280 o
-2 -8 -1 1720.610 1782.110 71.459 1.153 o
-2 -7 -14 36.603 39.791 4.300 408.569 o
-2 -7 -13 107.216 116.693 6.786 127.872 o
-2 -7 -12 44.555 45.774 4.709 335.678 o
-2 -7 -11 237.823 224.300 19.989 23.619 o
-2 -7 -10 323.769 325.040 10.999 30.728 o
-2 -7 -9 968.009 1118.830 27.723 4.207 o
-2 -7 -8 604.318 622.600 17.388 10.725 o
-2 -7 -7 4278.380 4352.390 130.364 0.242 o
-2 -7 -6 133.368 139.181 6.963 104.856 o
-2 -7 -5 7329.230 7209.210 111.903 0.109 o
-2 -7 -4 329.538 309.729 9.397 33.254 o
-2 -7 -3 17326.600 18710.200 750.595 0.011 o
-2 -7 -2 591.364 545.305 41.497 5.353 o
-2 -7 -1 22513.800 24321.500 709.114 0.008 o
-2 -6 -15 104.146 114.709 6.718 131.598 o
-2 -6 -13 187.014 198.774 10.630 54.820 o
-2 -6 -12 421.413 424.494 12.327 20.686 o
-2 -6 -11 683.083 681.611 19.166 8.782 o
-2 -6 -10 577.037 588.785 16.145 11.876 o
-2 -6 -9 1442.510 1597.010 64.055 1.496 o
-2 -6 -8 625.252 592.769 17.774 10.521 o
-2 -6 -7 4035.230 4236.290 86.662 0.312 o
-2 -6 -6 1904.830 1923.530 23.722 1.552 o
-2 -6 -5 6504.560 6731.270 173.113 0.112 o
-2 -6 -4 3804.650 4030.960 101.020 0.321 o
-2 -6 -3 5007.550 5052.110 220.290 0.135 o
-2 -6 -2 3284.140 3127.520 162.156 0.283 o
-2 -6 -1 3635.880 3763.230 169.039 0.239 o
-2 -5 -15 112.202 111.792 6.628 128.716 o
-2 -5 -14 188.140 174.644 9.153 64.208 o
-2 -5 -13 142.684 141.811 8.417 86.238 o
-2 -5 -12 850.284 839.450 19.483 6.367 o
-2 -5 -11 12.823 16.278 3.353 856.145 o
-2 -5 -10 3033.140 3102.550 162.919 0.296 o
-2 -5 -9 23.648 33.163 3.085 694.618 o
-2 -5 -8 5587.660 5849.450 164.878 0.143 o
-2 -5 -7 450.194 484.843 15.255 16.575 o
-2 -5 -6 10031.300 9572.720 140.120 0.060 o
-2 -5 -5 3831.750 3820.700 72.772 0.369 o
-2 -5 -4 12465.300 12429.600 158.066 0.039 o
-2 -5 -3 11075.200 11428.800 278.675 0.040 o
-2 -5 -2 7185.050 7357.270 159.445 0.100 o
-2 -5 -1 25338.200 24869.000 73.535 0.010 o
-2 -4 -16 298.675 296.869 24.528 15.748 o
-2 -4 -15 55.274 48.539 7.200 185.180 o
-2 -4 -14 870.857 831.609 19.429 6.247 o
-2 -4 -13 167.101 186.159 7.863 75.677 o
-2 -4 -12 1001.290 1005.170 17.024 5.037 o
-2 -4 -10 1960.000 2059.630 54.474 1.155 o
-2 -4 -9 1938.940 1923.050 32.832 1.440 o
-2 -4 -8 2226.840 2099.880 74.105 0.854 o
-2 -4 -7 4197.960 3869.880 134.374 0.254 o
-2 -4 -6 746.849 761.486 15.678 8.191 o
-2 -4 -5 14246.400 14612.700 519.968 0.020 o
-2 -4 -4 719.915 750.246 22.652 7.375 o
-2 -4 -3 6918.120 7117.010 120.634 0.116 o
-2 -4 -2 411.475 439.502 15.004 18.769 o
-2 -4 -1 7159.950 6816.820 166.844 0.103 o
-2 -3 -16 79.218 86.231 6.847 157.950 o
-2 -3 -15 161.909 162.598 9.201 71.553 o
-2 -3 -14 331.278 353.678 19.038 19.421 o
-2 -3 -13 590.497 610.091 17.129 11.134 o
-2 -3 -12 1178.880 1155.940 16.752 3.876 o
-2 -3 -11 2247.110 2276.100 39.275 1.061 o
-2 -3 -10 3324.350 3268.520 73.510 0.469 o
-2 -3 -9 3603.130 3653.330 130.034 0.304 o
-2 -3 -8 7954.840 7392.840 156.894 0.090 o
-2 -3 -7 4614.980 4367.530 117.438 0.237 o
-2 -3 -6 11709.500 11326.300 222.479 0.041 o
-2 -3 -5 1318.670 1306.050 37.698 2.521 o
-2 -3 -4 15550.300 15964.300 327.466 0.022 o
-2 -3 -3 597.657 581.207 19.387 10.564 o
-2 -3 -2 29685.900 30118.500 94.731 0.007 o
-2 -3 -1 5230.020 6065.310 307.460 0.087 o
-2 -2 -16 306.876 313.304 11.159 32.303 o
-2 -2 -15 465.145 457.959 11.780 18.574 o
-2 -2 -14 523.327 562.505 16.976 12.909 o
-2 -2 -13 1133.630 1114.610 21.678 3.923 o
-2 -2 -12 1777.530 1861.490 87.784 0.919 o
-2 -2 -11 2019.020 1984.230 23.766 1.420 o
-2 -2 -10 2451.810 2464.660 40.889 0.909 o
-2 -2 -9 688.408 641.149 17.064 9.419 o
-2 -2 -8 4671.240 4664.640 43.485 0.280 o
-2 -2 -7 1260.910 1239.680 20.841 3.317 o
-2 -2 -6 6048.770 6068.390 145.414 0.138 o
-2 -2 -5 332.830 281.005 8.460 35.733 o
-2 -2 -4 1992.780 1807.730 43.551 1.331 o
-2 -2 -3 4883.780 4884.950 52.920 0.252 o
-2 -2 -2 1752.850 1705.910 47.848 1.502 o
-2 -2 -1 365.920 351.106 7.517 30.562 o
-2 -1 -16 121.277 120.034 8.527 96.739 o
-2 -1 -15 309.353 294.358 9.015 36.577 o
-2 -1 -14 402.337 420.426 12.819 21.236 o
-2 -1 -13 1346.660 1314.460 42.938 2.294 o
-2 -1 -12 1230.330 1304.650 28.681 3.035 o
-2 -1 -11 4738.610 4478.120 33.803 0.286 o
-2 -1 -10 1993.650 1962.260 46.404 1.247 o
-2 -1 -9 12144.400 11783.900 75.685 0.044 o
-2 -1 -8 2879.280 2832.540 30.029 0.721 o
-2 -1 -7 15707.500 14995.500 246.859 0.024 o
-2 -1 -6 5665.360 5696.800 96.092 0.175 o
-2 -1 -5 16597.800 16772.000 289.886 0.021 o
-2 -1 -4 5941.080 5889.380 138.266 0.146 o
-2 -1 -3 3599.580 3544.160 74.867 0.409 o
-2 -1 -2 4214.420 4185.860 28.538 0.350 o
-2 -1 -1 11122.500 10606.100 131.775 0.050 o
-1 -12 -11 215.023 148.004 20.449 24.986 o
-1 -12 -10 78.536 65.731 15.066 53.336 o
-1 -12 -9 213.131 213.837 17.963 28.539 o
-1 -12 -8 245.619 244.138 19.645 23.516 o
-1 -11 -12 67.723 75.259 6.810 173.703 o
-1 -11 -11 324.291 310.054 14.230 26.487 o
-1 -11 -10 208.754 210.857 9.889 53.341 o
-1 -11 -9 665.604 655.606 49.986 3.842 o
-1 -11 -8 486.746 451.195 16.349 15.388 o
-1 -11 -7 1597.650 1567.420 70.296 1.292 o
-1 -11 -6 677.362 629.659 30.873 6.643 o
-1 -11 -5 1724.600 1237.670 44.244 1.819 o
-1 -11 -4 798.447 785.943 36.057 4.810 o
-1 -10 -12 55.217 46.966 4.883 294.822 o
-1 -10 -11 418.305 450.229 17.383 16.668 o
-1 -10 -10 94.254 67.309 10.415 91.886 o
-1 -10 -9 201.342 196.535 11.454 49.330 o
-1 -10 -8 363.475 365.760 12.433 24.929 o
-1 -10 -7 121.120 125.995 14.040 51.885 o
-1 -10 -6 170.903 182.415 8.137 73.397 o
-1 -10 -5 194.758 200.232 7.382 68.657 o
-1 -10 -4 685.062 679.450 18.700 8.869 o
-1 -10 -3 374.377 544.603 133.696 0.766 o
-1 -10 -2 1504.190 1384.950 45.770 1.954 o
-1 -10 -1 220.890 198.107 17.381 29.785 o
-1 -9 -13 103.853 90.753 7.367 128.387 o
-1 -9 -12 242.763 261.160 12.462 37.666 o
-1 -9 -11 554.661 552.821 32.614 7.363 o
-1 -9 -10 885.835 836.086 17.888 6.278 o
-1 -9 -9 1808.100 1807.210 30.887 1.637 o
-1 -9 -8 1441.140 1515.780 45.573 1.956 o
-1 -9 -7 3008.430 3100.780 56.347 0.585 o
-1 -9 -6 2826.640 2930.990 77.633 0.572 o
-1 -9 -5 4298.280 4432.530 159.405 0.209 o
-1 -9 -4 3241.830 3198.130 36.818 0.566 o
-1 -9 -3 3662.120 3696.350 46.646 0.434 o
-1 -9 -2 1180.290 1156.520 26.447 3.471 o
-1 -9 -1 2526.210 2478.540 96.828 0.592 o
-1 -8 -14 291.823 308.352 12.905 30.704 o
-1 -8 -12 387.734 410.087 16.113 19.266 o
-1 -8 -11 273.338 331.405 25.495 15.080 o
-1 -8 -10 307.927 273.312 15.043 27.251 o
-1 -8 -9 480.710 462.653 19.258 13.832 o
-1 -8 -8 345.152 338.054 11.327 28.239 o
-1 -8 -7 258.435 264.938 11.492 38.316 o
-1 -8 -6 227.159 237.055 8.961 51.465 o
-1 -8 -5 865.526 854.690 13.395 6.793 o
-1 -8 -4 748.432 761.753 13.603 8.470 o
-1 -8 -3 1571.510 1441.310 179.159 0.375 o
-1 -8 -2 1287.410 1160.790 32.245 2.933 o
-1 -8 -1 3635.840 3554.050 45.227 0.450 o
-1 -7 -15 54.795 50.701 4.733 300.403 o
-1 -7 -14 190.967 209.774 8.815 61.479 o
-1 -7 -13 157.170 164.967 10.802 62.217 o
-1 -7 -12 860.423 822.327 23.609 5.884 o
-1 -7 -11 329.408 357.239 13.909 25.314 o
-1 -7 -10 1742.930 1819.100 32.045 1.685 o
-1 -7 -9 1137.210 1176.890 28.409 3.479 o
-1 -7 -8 5650.120 6210.300 68.562 0.176 o
-1 -7 -7 3151.940 2680.630 43.691 0.634 o
-1 -7 -6 8466.320 8621.360 772.270 0.019 o
-1 -7 -5 3937.000 3494.860 171.704 0.229 o
-1 -7 -4 7190.860 6709.400 256.521 0.081 o
-1 -7 -3 3089.240 3209.660 38.682 0.596 o
-1 -7 -2 10680.300 10770.000 157.461 0.051 o
-1 -7 -1 509.936 455.037 13.846 15.998 o
-1 -6 -15 30.058 30.669 4.788 399.318 o
-1 -6 -14 634.259 680.771 17.322 9.841 o
-1 -6 -13 23.678 24.131 3.717 606.727 o
-1 -6 -12 1365.670 1357.300 57.938 1.802 o
-1 -6 -11 119.327 117.721 8.033 103.838 o
-1 -6 -9 313.721 315.302 10.961 31.977 o
-1 -6 -8 581.396 633.616 18.019 10.823 o
-1 -6 -7 1330.970 1420.270 18.585 2.937 o
-1 -6 -6 673.808 668.018 13.779 10.121 o
-1 -6 -5 2176.780 2212.420 19.448 1.232 o
-1 -6 -4 419.844 389.890 32.418 9.077 o
-1 -6 -3 10058.500 9960.770 161.241 0.057 o
-1 -6 -2 717.038 783.752 8.858 9.339 o
-1 -6 -1 11405.600 11303.300 214.298 0.043 o
-1 -5 -15 87.457 77.438 7.995 130.439 o
-1 -5 -14 464.027 488.967 13.194 17.257 o
-1 -5 -12 1167.500 1318.270 30.078 3.122 o
-1 -5 -11 562.534 547.164 20.928 10.856 o
-1 -5 -10 2915.230 2791.680 84.993 0.542 o
-1 -5 -9 2098.610 2017.700 40.331 1.218 o
-1 -5 -8 3201.130 2749.670 113.277 0.416 o
-1 -5 -7 3083.140 2999.710 68.056 0.547 o
-1 -5 -6 2523.930 2176.470 48.763 0.899 o
-1 -5 -5 10586.700 9693.350 134.703 0.056 o
-1 -5 -4 4169.700 3976.360 131.955 0.256 o
-1 -5 -3 13182.400 12463.200 359.676 0.029 o
-1 -5 -2 5149.950 4590.970 303.161 0.096 o
-1 -5 -1 17150.500 16674.300 412.346 0.018 o
-1 -4 -16 83.686 82.702 5.909 179.454 o
-1 -4 -15 291.428 274.724 11.245 35.181 o
-1 -4 -14 396.351 410.633 15.619 19.357 o
-1 -4 -13 648.876 664.006 20.953 8.897 o
-1 -4 -12 590.775 574.139 12.714 12.812 o
-1 -4 -11 764.559 718.314 20.333 7.501 o
-1 -4 -10 1739.240 1712.100 27.043 1.814 o
-1 -4 -9 1685.540 1649.590 39.667 1.724 o
-1 -4 -8 2936.490 2933.390 32.551 0.684 o
-1 -4 -7 3280.610 3259.020 41.851 0.543 o
-1 -4 -6 6631.410 6448.870 143.018 0.122 o
-1 -4 -5 10824.000 10634.000 206.802 0.048 o
-1 -4 -4 4756.480 4493.880 133.053 0.213 o
-1 -4 -3 11942.300 11625.500 260.141 0.038 o
-1 -4 -2 3789.970 3826.890 22.136 0.428 o
-1 -4 -1 9362.160 8278.890 143.551 0.071 o
-1 -3 -16 126.842 129.104 7.071 109.324 o
-1 -3 -15 407.694 378.520 11.727 22.907 o
-1 -3 -14 249.800 242.208 16.706 28.440 o
-1 -3 -13 996.571 1013.500 25.472 4.467 o
-1 -3 -12 256.728 252.671 7.828 48.685 o
-1 -3 -11 2004.690 1859.990 22.985 1.493 o
-1 -3 -10 281.263 282.400 6.857 44.794 o
-1 -3 -9 2820.930 2618.930 30.246 0.775 o
-1 -3 -8 330.472 350.123 5.562 36.012 o
-1 -3 -7 9271.900 9308.790 135.241 0.068 o
-1 -3 -6 237.202 295.960 9.152 44.886 o
-1 -3 -5 13663.400 13166.000 325.408 0.028 o
-1 -3 -4 3345.270 3146.780 49.066 0.528 o
-1 -3 -3 23040.600 23781.900 356.417 0.011 o
-1 -3 -2 24594.300 23114.000 204.175 0.011 o
-1 -3 -1 54262.700 54515.700 1127.490 0.002 o
-1 -2 -16 52.102 62.897 6.747 197.567 o
-1 -2 -15 297.612 306.658 11.855 32.148 o
-1 -2 -14 74.626 80.647 6.663 169.039 o
-1 -2 -13 795.021 847.784 22.421 6.397 o
-1 -2 -12 276.847 248.652 11.036 38.330 o
-1 -2 -11 3741.230 3724.690 76.197 0.380 o
-1 -2 -10 1134.640 1106.090 27.062 3.667 o
-1 -2 -9 4519.020 4363.350 42.324 0.305 o
-1 -2 -8 5035.760 4813.870 59.279 0.242 o
-1 -2 -7 7816.790 7887.920 97.697 0.098 o
-1 -2 -6 10386.700 10313.500 192.655 0.052 o
-1 -2 -5 9522.600 9400.800 114.691 0.067 o
-1 -2 -4 14970.300 14768.200 52.626 0.029 o
-1 -2 -3 2611.790 2659.430 26.065 0.857 o
-1 -2 -2 30054.100 31747.400 533.389 0.006 o
-1 -2 -1 282.453 312.369 17.766 23.487 o
-1 -1 -16 133.773 124.510 15.930 42.033 o
-1 -1 -15 326.814 321.124 12.345 28.685 o
-1 -1 -14 342.763 356.867 13.379 25.245 o
-1 -1 -13 677.778 697.945 12.222 10.116 o
-1 -1 -12 670.516 626.495 23.220 8.339 o
-1 -1 -11 745.302 674.816 31.980 5.893 o
-1 -1 -10 1682.210 1631.630 64.989 1.310 o
-1 -1 -9 721.971 740.697 8.537 9.622 o
-1 -1 -8 2755.990 2682.000 59.646 0.686 o
-1 -1 -7 2852.030 2883.840 49.672 0.668 o
-1 -1 -6 8122.390 7782.900 86.967 0.095 o
-1 -1 -5 5937.740 5883.640 107.484 0.158 o
-1 -1 -4 30772.700 29719.100 391.658 0.007 o
-1 -1 -3 19654.700 19364.800 151.743 0.017 o
-1 -1 -2 22402.100 22623.900 347.731 0.012 o
-1 -1 -1 4473.270 4210.280 113.447 0.253 o
0 0 2 80627.200 75306.300 2216.050 0.001 o
0 0 4 48872.200 46674.300 101.416 0.003 o
0 0 6 21962.900 21198.300 92.418 0.014 o
0 0 8 3108.570 2873.950 38.169 0.633 o
0 0 10 493.477 507.352 12.121 16.538 o
0 0 12 14.602 21.998 3.705 697.002 o
0 0 14 483.809 493.956 22.005 12.125 o
0 1 1 2.077 7.285 0.828 6949.070 o
0 1 2 937.153 910.644 28.559 4.715 o
0 1 3 5316.180 5587.040 99.261 0.189 o
0 1 4 25619.300 24108.200 343.069 0.009 o
0 1 5 564.178 619.151 6.108 14.559 o
0 1 6 12966.500 12843.100 216.975 0.034 o
0 1 7 63.363 64.340 2.508 381.584 o
0 1 8 5142.620 4975.190 121.548 0.195 o
0 1 9 6.291 11.022 1.432 2881.540 o
0 1 10 1145.820 1067.440 11.729 4.375 o
0 1 11 8.148 12.421 1.757 2143.410 o
0 1 12 363.259 355.181 6.944 31.175 o
0 1 13 55.701 55.611 3.483 371.384 o
0 1 14 294.500 267.397 9.715 38.304 o
0 1 15 73.570 71.495 5.539 209.834 o
0 2 0 18022.200 16543.800 46.624 0.021 o
0 2 1 35646.800 42071.300 2103.970 0.002 o
0 2 2 62349.100 67813.500 1269.810 0.001 o
0 2 3 45227.000 46358.900 381.215 0.003 o
0 2 4 29994.300 30057.000 973.486 0.005 o
0 2 5 16672.900 16541.200 244.641 0.021 o
0 2 6 4217.150 4161.180 130.809 0.250 o
0 2 7 8172.890 7836.840 51.531 0.097 o
0 2 8 867.263 870.248 15.377 6.532 o
0 2 9 2664.180 2550.450 77.647 0.647 o
0 2 10 13.201 13.345 1.834 1698.350 o
0 2 11 1356.990 1264.680 25.328 2.886 o
0 2 12 53.721 58.455 3.467 374.562 o
0 2 13 304.713 287.670 14.532 27.831 o
0 2 14 3.786 5.674 2.045 2455.210 o
0 2 15 53.980 49.456 4.622 310.926 o
0 2 16 60.392 56.613 6.010 220.329 o
0 3 1 351.450 402.074 14.938 21.963 o
0 3 2 6537.820 5998.770 112.831 0.138 o
0 3 3 246.711 240.099 4.101 61.378 o
0 3 4 2346.770 1902.680 56.601 0.981 o
0 3 5 838.571 770.047 15.310 7.238 o
0 3 6 10568.500 10184.900 162.204 0.053 o
0 3 7 2906.790 2859.510 63.111 0.614 o
0 3 8 1707.540 1607.730 35.759 1.787 o
0 3 9 1556.900 1533.400 50.420 1.711 o
0 3 10 569.507 525.128 14.891 13.114 o
0 3 11 1222.350 1163.900 24.194 3.427 o
0 3 12 57.025 54.969 4.824 284.875 o
0 3 13 535.057 502.836 12.254 15.284 o
0 3 14 33.464 27.230 4.725 400.031 o
0 3 15 332.897 309.908 10.621 31.160 o
0 3 16 0.478 1.268 2.261 2627.030 o
0 4 0 141.108 118.831 7.539 99.773 o
0 4 1 44163.300 42289.800 482.072 0.003 o
0 4 2 214.482 202.847 11.406 47.305 o
0 4 3 30086.900 30945.400 104.600 0.007 o
0 4 4 8601.670 9551.420 235.208 0.061 o
0 4 5 20898.100 19806.400 479.468 0.012 o
0 4 6 2742.620 2718.500 173.985 0.298 o
0 4 7 9221.060 9000.810 226.828 0.060 o
0 4 8 2796.370 2842.480 78.007 0.586 o
0 4 9 3589.260 3294.150 30.776 0.497 o
0 4 10 2359.530 2313.180 27.548 1.052 o
0 4 11 1272.880 1194.910 44.738 2.440 o
0 4 12 299.264 300.432 8.555 38.141 o
0 4 13 464.917 426.963 17.695 15.509 o
0 4 14 0.939 1.906 2.369 2331.630 o
0 4 15 226.544 214.945 8.941 53.541 o
0 4 16 50.722 62.088 5.025 279.705 o
0 5 1 969.880 927.367 41.172 3.534 o
0 5 2 368.523 290.641 53.557 4.354 o
0 5 3 4019.420 3615.610 133.712 0.273 o
0 5 4 3419.850 3176.230 62.725 0.485 o
0 5 5 3946.580 3713.720 46.633 0.395 o
0 5 6 346.062 310.417 10.393 30.420 o
0 5 7 2862.980 2609.480 69.920 0.628 o
0 5 8 35.514 33.062 3.490 527.786 o
0 5 9 3409.140 3088.340 137.456 0.324 o
0 5 10 1231.000 1203.500 40.785 2.661 o
0 5 11 771.280 788.437 20.020 7.164 o
0 5 12 709.676 699.951 15.821 8.992 o
0 5 13 517.628 506.890 27.598 9.354 o
0 5 14 392.343 529.055 29.790 9.718 o
0 5 15 278.151 238.271 12.145 36.183 o
0 5 16 190.996 185.055 10.361 56.554 o
0 6 0 1930.910 1842.220 49.890 1.290 o
0 6 1 7242.630 7101.480 236.918 0.083 o
0 6 2 9417.720 10295.600 456.343 0.034 o
0 6 3 4058.470 3841.910 235.210 0.155 o
0 6 4 6906.760 6362.560 277.025 0.080 o
0 6 5 982.894 953.016 14.622 5.451 o
0 6 6 11904.000 10801.400 287.121 0.038 o
0 6 7 22.414 26.946 3.061 748.491 o
0 6 8 9538.620 10042.400 111.971 0.064 o
0 6 9 84.465 68.197 5.264 206.219 o
0 6 10 3404.900 3129.400 46.744 0.523 o
0 6 11 160.397 149.863 7.658 85.122 o
0 6 12 1699.330 1763.800 44.889 1.570 o
0 6 13 279.021 263.818 11.716 35.864 o
0 6 14 226.917 227.518 9.262 51.269 o
0 6 15 174.287 159.672 22.525 22.475 o
0 7 1 5.222 3.471 0.873 5862.910 o
0 7 2 228.966 210.099 10.435 48.238 o
0 7 3 595.048 557.464 11.940 13.132 o
0 7 4 362.801 399.266 9.365 27.142 o
0 7 5 2063.820 1846.390 49.303 1.210 o
0 7 6 1833.170 1758.650 39.464 1.529 o
0 7 7 482.436 502.557 12.754 16.663 o
0 7 8 977.720 956.830 25.449 4.683 o
0 7 9 22.593 30.712 4.017 537.740 o
0 7 10 1260.250 1349.140 30.113 2.858 o
0 7 11 0.127 3.218 2.796 1716.180 o
0 7 12 1724.380 1732.770 34.483 1.718 o
0 7 13 10.549 18.314 3.542 808.643 o
0 7 14 728.692 814.644 23.579 6.873 o
0 7 15 4.522 8.078 2.954 1310.300 o
0 8 0 2902.330 3057.830 54.683 0.618 o
0 8 1 778.802 827.325 11.225 8.009 o
0 8 2 2887.750 2933.710 43.380 0.671 o
0 8 3 1920.790 2059.230 62.595 1.091 o
0 8 4 3534.920 3291.550 70.870 0.442 o
0 8 5 1787.010 1831.940 126.865 0.595 o
0 8 6 4188.030 4390.450 51.236 0.327 o
0 8 7 898.032 999.584 25.215 4.989 o
0 8 8 3304.410 3286.290 133.283 0.333 o
0 8 9 1101.450 1188.430 39.216 3.014 o
0 8 10 2412.140 2544.800 43.219 0.898 o
0 8 11 479.740 470.491 15.835 15.597 o
0 8 12 1130.240 1149.800 23.197 3.799 o
0 8 13 107.750 87.761 14.996 50.069 o
0 8 14 414.137 405.246 16.401 18.206 o
0 9 1 0.971 1.720 2.726 1795.300 o
0 9 2 1.662 1.958 1.923 3270.380 o
0 9 3 17.246 17.886 2.343 1159.940 o
0 9 4 97.847 96.343 5.299 171.957 o
0 9 5 661.511 611.894 28.528 7.301 o
0 9 6 161.497 158.684 7.875 81.602 o
0 9 7 587.553 593.187 16.832 11.424 o
0 9 8 860.712 883.832 44.678 3.598 o
0 9 9 765.170 872.401 25.373 6.129 o
0 9 10 743.856 745.962 20.319 7.569 o
0 9 11 926.676 987.575 19.658 5.334 o
0 9 12 325.597 315.379 19.493 19.740 o
0 9 13 658.553 770.914 19.858 8.408 o
0 10 3 1539.660 1507.320 35.048 2.077 o
0 10 4 766.847 750.898 31.693 5.606 o
0 10 5 3189.450 3155.850 169.382 0.274 o
0 10 6 291.385 312.304 11.133 33.708 o
0 10 7 3002.500 3045.310 65.194 0.567 o
0 10 8 123.322 121.461 7.521 107.459 o
0 10 9 2251.490 2508.480 95.762 0.649 o
0 10 10 429.802 417.942 13.443 19.645 o
0 10 11 898.415 945.025 32.742 4.427 o
0 10 12 67.648 65.093 5.695 216.836 o
0 10 13 258.379 288.679 17.435 25.566 o
0 11 5 5.395 4.861 3.238 1142.860 o
0 11 6 151.306 155.385 15.916 39.608 o
0 11 7 373.591 387.472 15.328 20.947 o
0 11 8 407.554 398.415 15.799 19.025 o
0 11 9 739.417 768.742 31.072 5.798 o
0 11 10 96.525 109.061 7.309 128.284 o
0 11 11 608.699 610.558 18.289 10.494 o
0 11 12 58.179 49.840 6.695 200.002 o
0 12 8 107.594 108.734 10.096 85.879 o
0 12 9 684.226 678.888 20.954 8.409 o
0 12 10 148.460 129.853 7.974 90.311 o
0 12 11 329.636 309.353 18.197 21.149 o
1 0 1 18220.200 18074.500 131.603 0.019 o
1 0 2 6303.930 5634.680 78.403 0.160 o
1 0 3 8339.200 7939.240 123.356 0.086 o
1 0 4 11143.500 10657.600 157.922 0.049 o
1 0 5 10451.300 10149.200 120.997 0.057 o
1 0 6 5706.280 5405.220 112.594 0.171 o
1 0 7 10387.800 10063.600 62.861 0.060 o
1 0 8 7801.830 7778.170 42.940 0.104 o
1 0 9 7321.460 7140.660 118.964 0.108 o
1 0 10 3285.750 3260.800 65.765 0.493 o
1 0 11 633.955 602.193 22.056 9.170 o
1 0 12 631.791 609.903 13.010 11.520 o
1 0 13 439.402 409.992 11.300 20.953 o
1 0 14 315.089 308.277 8.314 36.387 o
1 0 15 9.532 8.508 3.036 1122.710 o
1 1 0 30752.500 32375.700 489.869 0.006 o
1 1 1 4954.140 4917.230 65.745 0.241 o
1 1 2 21975.600 22257.300 301.887 0.012 o
1 1 3 20581.600 20380.200 162.092 0.015 o
1 1 4 29673.900 30330.700 746.518 0.006 o
1 1 5 6973.010 7041.010 93.524 0.121 o
1 1 6 8053.990 8052.310 164.522 0.083 o
1 1 7 3448.460 3364.410 29.734 0.517 o
1 1 8 2307.860 2098.870 24.511 1.160 o
1 1 9 885.122 912.379 16.592 6.118 o
1 1 10 1370.830 1287.610 14.386 3.097 o
1 1 11 791.371 774.742 27.872 5.932 o
1 1 12 762.885 731.318 11.984 8.696 o
1 1 13 610.422 607.848 9.878 12.732 o
1 1 14 267.416 253.441 8.192 46.045 o
1 1 15 295.293 298.071 11.328 33.636 o
1 2 0 12019.200 11943.100 204.110 0.040 o
1 2 1 162.026 164.129 5.658 97.209 o
1 2 2 31534.000 32439.000 192.837 0.006 o
1 2 3 2671.670 2573.680 52.825 0.754 o
1 2 4 15658.400 15454.900 320.719 0.022 o
1 2 5 9617.770 9541.200 110.298 0.066 o
1 2 6 10870.100 10673.700 216.575 0.047 o
1 2 7 7585.830 7378.540 114.386 0.103 o
1 2 8 5058.320 4831.200 32.654 0.251 o
1 2 9 4624.700 4258.970 90.041 0.264 o
1 2 10 1133.650 1026.680 14.329 4.435 o
1 2 11 3946.890 3666.490 79.017 0.357 o
1 2 12 222.375 220.735 7.796 58.004 o
1 2 13 785.388 762.362 19.146 7.281 o
1 2 14 63.785 70.915 5.261 235.495 o
1 2 15 270.222 264.853 8.909 43.130 o
1 2 16 73.703 81.153 8.323 130.572 o
1 3 0 5262.740 4883.510 87.003 0.213 o
1 3 1 54573.700 57453.600 1213.810 0.002 o
1 3 2 23880.400 23231.600 96.017 0.012 o
1 3 3 25077.200 23447.400 113.090 0.011 o
1 3 4 2940.440 2743.250 42.642 0.684 o
1 3 5 14920.200 14019.100 549.560 0.018 o
1 3 6 145.612 194.614 3.895 110.678 o
1 3 7 9789.620 9790.090 202.652 0.056 o
1 3 8 493.308 484.062 9.526 18.148 o
1 3 9 2674.160 2513.690 80.757 0.635 o
1 3 10 404.694 389.893 7.264 26.381 o
1 3 11 1675.320 1582.610 29.674 1.940 o
1 3 12 230.515 261.954 10.993 42.879 o
1 3 13 901.361 895.826 17.736 5.958 o
1 3 14 272.927 268.581 28.853 13.002 o
1 3 15 363.877 349.116 10.412 27.679 o
1 3 16 118.697 109.185 6.036 134.374 o
1 4 0 4452.180 4459.150 106.724 0.253 o
1 4 1 9235.720 8917.160 170.808 0.067 o
1 4 2 4372.040 4394.290 215.480 0.158 o
1 4 3 12038.500 12036.800 68.714 0.044 o
1 4 4 5257.970 5142.120 124.691 0.186 o
1 4 5 10465.600 10585.300 302.129 0.042 o
1 4 6 7280.170 7009.340 77.655 0.118 o
1 4 7 3679.900 3634.050 42.132 0.441 o
1 4 8 3161.890 2941.240 36.277 0.615 o
1 4 9 1871.110 1795.540 31.485 1.573 o
1 4 10 1832.170 1715.550 19.299 1.782 o
1 4 11 909.371 877.145 14.295 6.260 o
1 4 12 580.820 556.246 27.144 8.599 o
1 4 13 741.524 736.120 21.369 7.463 o
1 4 14 339.822 332.034 11.796 28.196 o
1 4 15 344.712 330.664 10.186 30.016 o
1 4 16 77.971 76.756 5.251 209.745 o
1 5 0 2868.410 3151.140 35.117 0.667 o
1 5 1 18164.500 17184.400 338.666 0.017 o
1 5 2 5248.890 5515.080 83.974 0.201 o
1 5 3 13682.400 12664.200 75.888 0.036 o
1 5 4 4232.510 3616.550 216.391 0.170 o
1 5 5 10887.000 10091.300 297.094 0.042 o
1 5 6 2491.970 2298.400 60.691 0.819 o
1 5 7 3232.180 3140.530 42.565 0.564 o
1 5 8 3286.720 3298.370 227.015 0.186 o
1 5 9 2143.950 2027.300 53.741 1.072 o
1 5 10 2818.100 2602.270 89.316 0.560 o
1 5 11 550.163 507.428 14.738 13.822 o
1 5 12 1191.980 1205.660 25.889 3.386 o
1 5 13 159.611 149.771 15.071 42.276 o
1 5 14 447.872 492.032 29.669 9.400 o
1 5 15 61.574 64.532 5.536 232.643 o
1 5 16 108.786 106.726 13.041 60.671 o
1 6 0 28.061 27.378 1.479 1049.210 o
1 6 1 11518.300 11183.100 367.802 0.034 o
1 6 2 707.332 614.372 41.403 4.810 o
1 6 3 10019.300 10216.600 94.396 0.061 o
1 6 4 650.179 709.136 25.281 7.681 o
1 6 5 2323.630 2110.530 107.575 0.606 o
1 6 6 680.409 635.783 22.713 8.301 o
1 6 7 1403.380 1413.030 17.102 2.799 o
1 6 8 733.615 736.447 19.149 7.916 o
1 6 9 434.667 410.370 17.776 16.500 o
1 6 10 1443.260 1380.770 137.349 0.595 o
1 6 11 125.262 107.603 6.593 122.346 o
1 6 12 1405.060 1436.140 26.568 2.561 o
1 6 13 21.146 21.322 3.642 654.987 o
1 6 14 687.129 731.967 16.321 8.985 o
1 6 15 21.490 29.006 4.588 461.681 o
1 7 0 8087.320 7624.410 214.388 0.077 o
1 7 1 480.008 453.822 9.529 19.282 o
1 7 2 11230.600 11364.700 174.007 0.046 o
1 7 3 2978.490 2794.420 45.533 0.659 o
1 7 4 7634.510 7527.810 64.049 0.108 o
1 7 5 3920.860 3860.490 135.323 0.269 o
1 7 6 8487.540 8412.870 81.778 0.086 o
1 7 7 3160.010 2922.790 29.948 0.630 o
1 7 8 5605.320 5422.750 52.425 0.199 o
1 7 9 1203.290 1198.310 21.991 3.520 o
1 7 10 1699.820 1676.620 30.421 1.838 o
1 7 11 353.728 350.698 12.840 25.445 o
1 7 12 738.135 733.782 19.652 7.798 o
1 7 13 166.994 165.692 8.381 75.280 o
1 7 14 155.273 148.604 13.281 50.454 o
1 7 15 58.896 61.818 5.340 248.087 o
1 8 0 3802.160 3655.310 59.817 0.401 o
1 8 1 3916.010 3932.640 91.183 0.330 o
1 8 2 1076.990 996.886 75.283 1.678 o
1 8 3 1827.700 1816.870 70.369 1.107 o
1 8 4 557.315 527.444 14.607 13.469 o
1 8 5 1075.550 1083.630 19.737 4.320 o
1 8 6 114.788 117.518 6.689 124.346 o
1 8 7 330.032 334.555 15.131 24.323 o
1 8 8 470.135 507.629 15.731 15.408 o
1 8 9 407.914 424.762 14.984 19.182 o
1 8 10 337.785 308.126 11.373 29.765 o
1 8 12 411.244 439.204 15.675 18.281 o
1 8 14 283.705 288.974 12.560 32.681 o
1 9 0 2074.280 2055.650 53.105 1.107 o
1 9 1 2299.480 2635.160 58.425 0.841 o
1 9 2 1330.730 1430.890 101.943 0.949 o
1 9 3 3131.190 3108.270 31.936 0.610 o
1 9 4 3754.420 3675.940 45.511 0.424 o
1 9 5 4112.840 4022.600 89.377 0.311 o
1 9 6 3183.540 3076.670 60.692 0.540 o
1 9 7 2772.530 2962.080 45.491 0.693 o
1 9 8 1519.650 1709.750 77.584 1.179 o
1 9 9 1682.900 1657.490 33.922 1.816 o
1 9 10 849.589 841.371 19.973 6.310 o
1 9 11 514.969 556.030 17.528 12.925 o
1 9 12 242.133 256.257 10.374 43.550 o
1 9 13 94.101 108.583 6.893 137.373 o
1 10 2 1300.060 1298.870 33.842 2.696 o
1 10 3 483.354 496.423 22.232 12.008 o
1 10 4 677.990 690.425 23.089 7.968 o
1 10 5 252.202 269.887 10.476 41.226 o
1 10 6 116.875 112.326 7.197 117.351 o
1 10 7 107.194 99.628 6.810 133.026 o
1 10 8 277.976 273.453 10.738 37.597 o
1 10 9 196.414 214.812 9.488 56.837 o
1 10 10 56.325 60.051 5.558 243.776 o
1 10 11 403.218 445.777 13.502 20.111 o
1 10 12 53.631 60.278 5.503 250.805 o
1 11 4 828.818 864.454 28.505 5.374 o
1 11 5 1570.840 1737.120 53.633 1.544 o
1 11 6 631.898 593.331 20.075 9.784 o
1 11 7 1620.140 1688.320 81.405 1.084 o
1 11 8 433.307 517.994 24.336 11.656 o
1 11 9 696.830 730.680 21.232 7.948 o
1 11 10 196.823 211.009 9.878 55.424 o
1 11 11 352.107 386.962 15.991 21.180 o
1 11 12 60.767 78.330 11.304 87.999 o
1 12 8 197.167 201.092 16.351 33.536 o
1 12 9 202.551 193.993 10.622 52.725 o
1 12 10 67.772 60.776 5.896 212.016 o
2 0 0 7444.510 8472.810 697.914 0.023 o
2 0 1 283.889 273.426 6.511 45.746 o
2 0 2 16050.800 16648.600 331.254 0.021 o
2 0 3 2019.720 2015.490 46.179 1.216 o
2 0 4 3835.840 3795.340 75.276 0.367 o
2 0 5 1676.000 1670.800 40.388 1.711 o
2 0 6 2388.470 2288.410 45.974 0.948 o
2 0 7 231.930 251.147 8.959 49.541 o
2 0 8 2127.050 2123.530 34.440 1.210 o
2 0 9 4531.260 4456.410 36.525 0.303 o
2 0 10 889.917 913.330 19.690 5.798 o
2 0 11 2873.920 2843.050 27.933 0.726 o
2 0 12 831.662 834.911 20.759 6.378 o
2 0 13 2560.320 2620.880 55.941 0.768 o
2 0 14 246.497 256.687 7.768 50.209 o
2 0 15 1233.030 1201.890 25.810 3.275 o
2 0 16 26.401 25.376 4.568 450.588 o
2 1 0 410.732 437.278 8.998 23.326 o
2 1 1 7915.720 7891.710 128.654 0.092 o
2 1 2 4013.630 4034.150 45.961 0.368 o
2 1 3 3669.040 3530.200 54.953 0.434 o
2 1 4 6120.540 6375.720 168.612 0.124 o
2 1 5 16476.000 16982.300 380.868 0.019 o
2 1 6 5926.050 6214.640 115.767 0.151 o
2 1 7 15266.200 14176.700 64.155 0.029 o
2 1 8 2914.570 2818.070 35.415 0.700 o
2 1 9 12407.600 11769.700 105.117 0.042 o
2 1 10 2009.740 1959.510 24.417 1.434 o
2 1 11 4737.290 4587.490 67.822 0.263 o
2 1 12 1254.620 1329.580 36.358 2.667 o
2 1 13 1396.800 1375.810 46.032 2.087 o
2 1 14 442.596 438.413 10.651 20.601 o
2 1 15 281.984 266.087 9.189 40.928 o
2 1 16 134.597 143.337 9.586 78.367 o
2 2 0 12473.100 12733.300 253.823 0.035 o
2 2 1 842.008 826.104 29.681 5.269 o
2 2 2 2229.740 2219.920 38.701 1.090 o
2 2 3 5768.340 5748.420 106.490 0.166 o
2 2 4 2204.830 2177.580 73.843 0.850 o
2 2 5 595.174 513.939 12.783 13.379 o
2 2 6 5918.280 6148.950 110.793 0.154 o
2 2 7 1612.310 1581.740 49.088 1.661 o
2 2 8 4613.920 4351.340 154.472 0.203 o
2 2 9 878.645 827.941 10.245 7.048 o
2 2 10 2482.270 2472.300 45.867 0.871 o
2 2 11 2052.240 2071.920 46.609 1.174 o
2 2 12 1957.610 1964.910 32.626 1.408 o
2 2 13 1151.890 1182.240 28.995 3.399 o
2 2 14 524.568 544.256 12.906 14.737 o
2 2 15 473.721 492.623 14.324 16.272 o
2 2 16 289.931 302.606 10.954 34.598 o
2 3 0 16526.400 16081.500 197.494 0.023 o
2 3 1 5104.330 5660.320 113.151 0.188 o
2 3 2 27674.600 25826.400 719.593 0.007 o
2 3 3 463.120 441.541 13.645 17.833 o
2 3 4 14853.200 14842.100 239.427 0.026 o
2 3 5 1259.820 1216.970 17.448 3.461 o
2 3 6 11242.700 11404.700 411.857 0.031 o
2 3 7 5003.400 4763.050 64.190 0.243 o
2 3 8 7582.140 7559.420 239.330 0.077 o
2 3 9 3712.510 3922.260 187.196 0.210 o
2 3 10 3064.460 3205.070 81.964 0.492 o
2 3 11 2416.540 2345.810 70.753 0.777 o
2 3 12 1115.030 1098.350 40.124 3.038 o
2 3 13 628.942 600.400 23.346 8.900 o
2 3 14 323.702 323.054 9.170 33.511 o
2 3 15 157.910 161.479 5.999 97.068 o
2 3 16 72.674 78.706 4.870 229.526 o
2 4 0 163.062 154.896 8.349 78.228 o
2 4 1 7381.520 6844.320 209.461 0.089 o
2 4 2 348.367 381.710 10.882 27.095 o
2 4 3 7756.820 7656.340 243.822 0.074 o
2 4 4 629.723 670.675 9.307 11.756 o
2 4 5 15229.400 15194.300 382.458 0.022 o
2 4 6 736.167 768.206 15.131 8.358 o
2 4 7 4639.720 4100.740 98.790 0.261 o
2 4 8 2142.750 1979.510 45.692 1.156 o
2 4 9 2008.800 1923.690 26.836 1.432 o
2 4 10 1977.460 1923.110 57.605 1.150 o
2 4 11 418.919 420.019 13.461 20.027 o
2 4 12 983.832 1038.830 33.243 3.903 o
2 4 13 145.456 148.703 5.777 108.419 o
2 4 14 904.087 919.398 32.616 4.467 o
2 4 15 40.208 30.201 8.090 173.962 o
2 4 16 330.296 337.087 11.588 28.960 o
2 5 0 16307.900 16881.200 322.197 0.020 o
2 5 1 24628.700 24577.100 348.043 0.010 o
2 5 2 7253.090 6736.400 282.319 0.074 o
2 5 3 10892.400 10832.400 477.088 0.029 o
2 5 4 12131.600 11569.100 304.893 0.035 o
2 5 5 3378.410 3343.230 139.065 0.314 o
2 5 6 9639.370 9230.850 285.418 0.051 o
2 5 7 421.233 413.076 13.192 20.281 o
2 5 8 5265.220 4700.510 229.945 0.128 o
2 5 9 87.933 85.993 4.462 212.480 o
2 5 10 2977.710 2934.900 68.961 0.571 o
2 5 11 35.092 42.008 3.549 495.077 o
2 5 12 802.676 863.035 21.354 6.418 o
2 5 13 160.074 148.293 7.929 83.380 o
2 5 14 174.014 186.144 7.107 78.306 o
2 5 15 101.256 109.603 6.349 141.806 o
2 6 0 3457.680 3459.570 54.475 0.471 o
2 6 1 3576.060 3046.510 130.949 0.326 o
2 6 2 3773.220 3589.350 140.567 0.278 o
2 6 3 4981.560 5091.620 116.977 0.202 o
2 6 4 4244.330 4388.760 64.493 0.311 o
2 6 5 6643.930 7240.700 372.550 0.058 o
2 6 6 2151.190 1961.590 36.709 1.231 o
2 6 7 4145.960 3940.120 141.066 0.247 o
2 6 8 738.028 737.838 30.553 5.975 o
2 6 9 1373.370 1348.340 19.019 2.911 o
2 6 10 525.205 526.856 19.675 12.122 o
2 6 11 631.111 621.932 20.654 9.450 o
2 6 12 410.039 392.388 12.962 21.402 o
2 6 13 216.709 208.659 14.259 37.541 o
2 6 15 117.270 132.801 8.109 100.582 o
2 7 0 1377.140 1449.910 17.089 2.818 o
2 7 1 22788.000 23420.100 161.486 0.012 o
2 7 2 587.043 612.994 38.407 5.770 o
2 7 3 16942.700 18297.100 587.935 0.014 o
2 7 4 344.665 324.884 9.679 30.912 o
2 7 5 7025.720 6999.690 52.483 0.127 o
2 7 6 209.126 185.423 9.276 58.147 o
2 7 7 3989.640 4293.740 127.407 0.263 o
2 7 8 755.292 741.758 29.065 6.086 o
2 7 9 809.665 610.348 198.462 0.345 o
2 7 10 388.350 397.566 11.922 23.238 o
2 7 11 196.458 198.498 9.796 56.970 o
2 7 12 70.467 70.621 5.665 210.214 o
2 7 13 74.229 83.720 6.041 185.459 o
2 7 14 27.152 29.177 3.974 521.562 o
2 8 0 3978.820 3913.140 52.921 0.372 o
2 8 1 1752.930 1828.910 56.151 1.334 o
2 8 2 4543.310 4281.300 96.243 0.263 o
2 8 3 1762.590 1694.860 41.203 1.599 o
2 8 4 4037.000 4693.480 278.738 0.119 o
2 8 5 1480.880 1324.960 32.632 2.369 o
2 8 6 1661.060 1622.570 34.093 1.860 o
2 8 7 963.500 939.762 21.425 5.120 o
2 8 8 882.526 872.578 20.249 5.932 o
2 8 9 680.196 657.325 20.346 8.707 o
2 8 10 491.707 507.945 14.276 15.545 o
2 8 11 251.929 268.148 12.220 37.060 o
2 8 12 82.838 77.750 5.860 184.441 o
2 8 13 88.147 89.066 6.252 163.231 o
2 8 14 29.585 23.985 3.914 531.834 o
2 9 0 9187.510 8360.260 339.897 0.049 o
2 9 1 7503.590 8167.450 70.045 0.104 o
2 9 2 7334.460 7357.720 92.521 0.111 o
2 9 3 4113.530 4142.220 59.061 0.340 o
2 9 4 5418.180 4839.570 234.486 0.122 o
2 9 5 2153.630 2056.680 52.360 1.071 o
2 9 6 1126.040 1112.100 26.060 3.737 o
2 9 7 465.350 494.989 24.306 11.366 o
2 9 8 272.428 268.827 10.549 38.840 o
2 9 9 173.338 165.681 9.477 66.700 o
2 9 11 44.629 53.733 6.086 241.702 o
2 9 13 43.060 45.736 4.792 333.763 o
2 10 0 36.662 41.957 10.870 104.815 o
2 10 1 2456.350 2395.400 68.288 0.771 o
2 10 2 589.096 582.921 33.380 6.851 o
2 10 3 2832.010 2756.520 49.370 0.692 o
2 10 4 904.775 970.678 23.399 5.192 o
2 10 5 1257.070 1168.140 31.716 3.018 o
2 10 6 1116.860 1151.260 40.833 2.940 o
2 10 7 898.757 928.385 23.347 5.350 o
2 10 8 439.792 442.051 13.757 18.583 o
2 10 10 168.799 169.810 8.649 72.449 o
2 10 11 59.494 57.072 8.009 153.679 o
2 10 12 75.931 67.659 6.535 177.543 o
2 11 3 35.127 35.407 6.729 234.729 o
2 11 4 2697.940 2556.930 62.206 0.708 o
2 11 5 190.037 181.227 12.621 47.150 o
2 11 6 1120.150 1123.490 22.985 3.894 o
2 11 7 186.139 196.217 11.363 51.905 o
2 11 8 506.249 543.759 21.152 11.698 o
2 11 9 45.834 51.962 6.223 234.464 o
2 11 10 105.270 102.369 8.336 109.471 o
2 11 11 51.667 49.587 6.190 229.436 o
2 12 6 632.570 740.431 41.108 4.893 o
2 12 7 116.984 114.435 9.040 93.545 o
2 12 8 383.637 320.765 18.502 18.792 o
2 12 10 69.349 65.339 6.120 199.105 o
2 13 9 288.660 216.966 20.257 21.615 o
3 0 1 17478.500 17284.300 229.460 0.020 o
3 0 2 4192.370 4131.560 62.224 0.330 o
3 0 3 21697.400 22134.500 152.170 0.013 o
3 0 4 8294.690 8383.590 119.671 0.085 o
3 0 5 25122.100 26457.300 272.545 0.009 o
3 0 6 5718.700 5456.340 39.662 0.196 o
3 0 7 10409.500 10521.400 323.869 0.041 o
3 0 8 1787.880 1761.470 15.095 1.842 o
3 0 9 7815.510 7841.880 258.671 0.070 o
3 0 10 243.880 253.093 9.666 45.521 o
3 0 11 4417.720 4434.370 118.800 0.244 o
3 0 12 25.877 31.140 2.851 731.191 o
3 0 13 789.132 726.858 15.302 7.967 o
3 0 14 0.628 2.569 2.535 2052.790 o
3 0 15 277.995 278.731 7.830 43.547 o
3 0 16 2.533 5.197 2.792 1567.620 o
3 1 0 14037.500 13771.100 218.655 0.030 o
3 1 1 2064.230 2032.210 53.606 1.114 o
3 1 2 2672.680 2690.890 68.308 0.670 o
3 1 3 69.260 70.505 2.589 342.693 o
3 1 4 1506.490 1593.230 26.029 2.245 o
3 1 5 667.390 660.805 11.341 10.760 o
3 1 6 1616.400 1694.710 27.633 1.975 o
3 1 7 1904.610 1947.770 44.860 1.330 o
3 1 8 1244.120 1140.010 43.465 2.585 o
3 1 9 3317.930 3353.910 37.439 0.534 o
3 1 10 1407.580 1415.620 32.597 2.418 o
3 1 11 2602.170 2579.040 21.396 0.890 o
3 1 12 530.209 547.396 10.062 15.594 o
3 1 13 1720.800 1814.170 55.898 1.364 o
3 1 14 302.667 286.358 16.551 24.894 o
3 1 15 904.368 926.252 23.547 5.305 o
3 1 16 119.168 130.194 7.945 102.255 o
3 2 0 15462.200 16218.300 419.201 0.020 o
3 2 1 12026.400 11515.000 89.078 0.045 o
3 2 2 17063.500 17571.900 143.361 0.021 o
3 2 3 10789.700 10988.000 140.891 0.051 o
3 2 4 11655.000 11919.600 159.042 0.043 o
3 2 5 6921.780 7030.800 117.709 0.117 o
3 2 6 11252.600 11456.400 63.446 0.050 o
3 2 7 9384.390 9407.150 68.356 0.071 o
3 2 8 4267.600 4145.400 111.023 0.270 o
3 2 9 4209.150 4041.880 113.082 0.275 o
3 2 10 2171.010 2093.690 31.612 1.211 o
3 2 11 922.580 898.777 22.313 5.394 o
3 2 12 1140.420 1126.270 22.719 3.827 o
3 2 13 468.184 457.016 10.505 19.191 o
3 2 14 418.723 428.583 11.162 21.582 o
3 2 15 39.563 38.959 3.882 441.208 o
3 2 16 193.413 195.701 13.779 41.734 o
3 3 0 3110.600 3146.520 42.806 0.590 o
3 3 1 2251.020 2239.450 127.639 0.505 o
3 3 2 6630.110 6848.560 163.189 0.112 o
3 3 3 3502.450 3745.720 92.270 0.377 o
3 3 4 945.563 913.055 12.528 5.975 o
3 3 5 1757.540 2025.790 105.238 0.740 o
3 3 6 2258.710 2263.070 52.276 0.972 o
3 3 7 304.484 294.747 11.240 33.145 o
3 3 8 3587.870 3474.230 23.477 0.488 o
3 3 9 238.722 242.057 6.975 55.281 o
3 3 10 3126.350 3154.170 44.303 0.582 o
3 3 11 153.385 157.848 5.681 102.744 o
3 3 12 2081.470 2097.130 68.004 0.958 o
3 3 13 224.507 214.161 7.025 61.126 o
3 3 14 864.865 826.400 17.482 6.522 o
3 3 15 76.138 80.624 6.373 175.572 o
3 3 16 393.509 398.714 11.220 23.566 o
3 4 0 23805.100 25185.100 213.263 0.011 o
3 4 1 1873.470 1769.210 70.094 1.099 o
3 4 2 15854.900 16085.300 235.214 0.023 o
3 4 3 593.341 562.028 17.367 11.428 o
3 4 4 17071.800 17712.300 371.079 0.018 o
3 4 5 722.537 763.702 14.364 8.666 o
3 4 6 12892.600 12946.100 240.044 0.033 o
3 4 7 348.357 386.831 9.281 28.696 o
3 4 8 7857.760 7978.500 204.742 0.079 o
3 4 9 11.675 14.370 1.778 1800.950 o
3 4 10 3319.390 3312.950 118.847 0.362 o
3 4 11 14.281 17.591 2.883 998.674 o
3 4 12 1098.100 1107.330 35.204 3.334 o
3 4 13 62.209 70.996 7.369 164.252 o
3 4 14 520.491 497.565 14.595 14.752 o
3 4 15 29.990 34.569 3.480 561.784 o
3 5 0 5272.280 5145.970 81.357 0.209 o
3 5 1 2716.570 2731.190 128.499 0.422 o
3 5 2 2385.540 2320.950 31.224 1.020 o
3 5 3 4477.040 4177.930 211.126 0.161 o
3 5 4 414.870 477.885 27.771 10.600 o
3 5 5 5052.720 5011.510 93.452 0.216 o
3 5 6 155.128 154.671 6.451 96.127 o
3 5 7 3637.310 3558.820 106.500 0.347 o
3 5 8 501.618 476.903 9.714 17.886 o
3 5 9 1625.200 1714.050 24.488 1.996 o
3 5 10 498.000 485.235 28.107 9.497 o
3 5 11 796.484 795.889 19.115 7.033 o
3 5 12 579.591 564.622 23.637 9.609 o
3 5 13 342.501 354.052 9.178 30.536 o
3 5 14 316.237 303.829 9.579 34.481 o
3 5 15 72.282 82.862 6.000 189.352 o
3 6 0 3577.790 3154.190 30.113 0.512 o
3 6 1 20172.500 19484.400 210.579 0.016 o
3 6 2 4192.340 4238.200 39.185 0.343 o
3 6 3 20513.000 21105.200 223.426 0.014 o
3 6 4 4948.480 5091.540 116.292 0.204 o
3 6 5 8958.000 9745.180 337.242 0.047 o
3 6 6 2609.150 2405.310 98.959 0.574 o
3 6 7 2562.630 2370.130 86.680 0.646 o
3 6 8 1308.340 1282.970 29.425 2.848 o
3 6 9 1419.900 1397.500 18.598 2.750 o
3 6 10 540.670 540.568 14.321 13.816 o
3 6 11 660.379 688.539 21.727 8.451 o
3 6 12 246.621 234.769 9.608 46.591 o
3 6 13 290.164 298.265 9.602 37.334 o
3 6 14 35.949 43.509 5.405 308.926 o
3 6 15 76.706 84.181 7.085 155.023 o
3 7 0 827.614 850.682 21.837 6.221 o
3 7 1 2802.010 2758.490 43.666 0.720 o
3 7 2 200.205 188.700 7.686 67.238 o
3 7 3 2752.730 2694.270 146.716 0.366 o
3 7 4 1067.290 1008.880 43.390 3.061 o
3 7 5 1395.600 1473.600 96.593 0.995 o
3 7 6 724.294 704.194 52.353 3.442 o
3 7 7 2259.440 2356.910 43.229 1.009 o
3 7 8 470.009 466.315 13.829 17.075 o
3 7 9 1465.060 1492.430 58.238 1.644 o
3 7 10 222.951 211.474 8.041 57.910 o
3 7 11 575.221 578.879 13.143 12.976 o
3 7 12 61.123 61.604 5.403 241.553 o
3 7 13 155.775 163.799 9.969 67.800 o
3 7 14 0.392 -0.289 2.543 2150.420 o
3 8 0 3941.590 3620.170 314.994 0.107 o
3 8 1 15444.200 16298.300 500.305 0.018 o
3 8 2 2353.870 2453.000 82.058 0.711 o
3 8 3 11969.300 12191.000 691.809 0.018 o
3 8 4 2164.670 2124.240 35.852 1.176 o
3 8 5 6044.840 5781.630 83.605 0.165 o
3 8 6 2223.000 2252.130 81.658 0.776 o
3 8 7 2968.300 2981.640 46.473 0.635 o
3 8 8 521.466 549.867 14.820 13.970 o
3 8 9 804.537 893.135 20.796 6.359 o
3 8 10 112.530 101.643 5.898 144.168 o
3 8 11 444.847 501.254 14.102 17.167 o
3 8 12 43.073 44.227 4.811 334.411 o
3 8 13 129.224 130.291 9.352 83.830 o
3 9 0 12.806 14.643 2.977 1016.630 o
3 9 1 104.560 92.912 5.141 170.067 o
3 9 2 324.299 332.566 9.207 32.970 o
3 9 3 329.116 358.059 10.646 29.557 o
3 9 4 815.266 851.979 32.389 5.021 o
3 9 5 1126.050 1097.710 34.083 3.333 o
3 9 6 923.386 898.274 27.623 4.895 o
3 9 7 386.370 410.976 19.092 16.877 o
3 9 8 368.347 372.276 15.965 20.849 o
3 9 9 349.053 386.656 12.686 24.872 o
3 9 10 296.590 310.728 11.574 32.553 o
3 9 11 89.264 94.898 6.627 151.336 o
3 9 12 123.427 126.814 7.474 106.710 o
3 9 13 46.438 46.751 4.849 319.049 o
3 10 0 7578.830 8775.880 92.996 0.095 o
3 10 1 558.569 605.564 25.968 8.914 o
3 10 2 6865.630 6574.410 275.448 0.080 o
3 10 3 596.738 604.872 19.847 10.263 o
3 10 4 4542.530 4818.760 66.499 0.270 o
3 10 5 585.233 566.855 23.738 9.496 o
3 10 6 2651.120 2742.290 57.881 0.714 o
3 10 7 197.911 195.410 12.081 47.411 o
3 10 8 984.246 1157.620 31.668 3.811 o
3 10 9 81.306 80.674 8.551 122.415 o
3 10 10 448.564 477.154 25.753 11.080 o
3 10 11 7.173 8.550 3.237 1066.050 o
3 10 12 161.954 173.640 10.013 65.107 o
3 11 0 145.745 179.471 19.456 29.040 o
3 11 2 109.478 138.461 12.420 62.447 o
3 11 3 84.781 94.646 10.291 92.219 o
3 11 5 61.877 68.610 6.170 204.381 o
3 11 6 344.403 349.152 12.791 26.089 o
3 11 7 157.676 161.462 10.617 63.573 o
3 11 8 233.141 240.266 11.252 43.107 o
3 11 9 82.457 82.079 6.711 160.276 o
3 11 10 215.178 222.161 10.048 50.777 o
3 11 11 9.183 9.465 3.317 980.799 o
3 12 4 851.180 890.436 50.809 3.143 o
3 12 5 1011.440 928.557 34.944 3.870 o
3 12 6 578.981 530.092 57.590 3.364 o
3 12 7 605.717 643.724 28.609 7.603 o
3 12 8 360.980 334.526 12.751 25.598 o
3 12 9 248.290 219.393 10.463 44.868 o
3 12 10 134.750 83.316 7.668 109.254 o
4 0 0 22097.000 20797.700 1153.270 0.006 o
4 0 1 550.926 562.248 30.256 7.972 o
4 0 2 23921.600 24864.900 334.263 0.010 o
4 0 3 620.678 594.055 16.093 11.055 o
4 0 4 8970.750 8911.930 139.414 0.072 o
4 0 5 1659.510 1708.300 25.249 1.942 o
4 0 6 866.879 871.871 18.978 6.175 o
4 0 7 1342.920 1345.220 20.439 2.957 o
4 0 8 19.360 21.717 2.573 977.267 o
4 0 9 651.926 681.432 12.444 10.637 o
4 0 10 59.321 60.541 3.122 371.143 o
4 0 11 559.774 582.928 15.065 12.638 o
4 0 12 54.752 58.409 3.518 367.306 o
4 0 13 244.748 228.976 9.573 47.385 o
4 0 14 84.778 94.096 4.679 205.009 o
4 0 15 170.813 170.752 7.488 79.362 o
4 0 16 86.198 89.630 6.015 170.551 o
4 1 0 11919.300 12919.300 139.451 0.041 o
4 1 1 28829.600 29157.700 147.205 0.008 o
4 1 2 12152.000 13164.100 210.450 0.037 o
4 1 3 20331.800 20584.800 337.925 0.014 o
4 1 4 7853.950 7940.540 71.865 0.100 o
4 1 5 12036.200 12089.800 72.291 0.044 o
4 1 6 9027.120 9428.610 145.584 0.069 o
4 1 7 6891.470 6948.320 94.569 0.124 o
4 1 8 3920.100 3934.520 67.336 0.361 o
4 1 9 1971.840 1816.780 72.088 1.022 o
4 1 10 965.459 915.404 12.838 5.803 o
4 1 11 1016.760 984.190 16.072 5.066 o
4 1 12 117.313 109.017 4.218 164.957 o
4 1 13 298.593 301.033 8.002 39.153 o
4 1 14 41.172 43.339 3.234 491.930 o
4 1 15 72.847 75.852 6.394 180.671 o
4 1 16 26.371 25.693 5.160 380.153 o
4 2 0 23442.200 23968.500 415.426 0.010 o
4 2 1 4031.720 3999.210 111.535 0.290 o
4 2 2 14162.000 14741.600 447.584 0.022 o
4 2 3 7782.190 7603.350 77.317 0.103 o
4 2 4 7363.660 7726.320 206.390 0.085 o
4 2 5 3456.310 3439.870 30.321 0.508 o
4 2 6 1217.690 1245.790 31.130 3.043 o
4 2 7 2331.410 2477.930 34.307 0.993 o
4 2 8 340.865 356.418 7.220 32.859 o
4 2 9 1205.300 1190.070 25.647 3.379 o
4 2 10 361.924 382.579 8.040 29.103 o
4 2 11 512.113 507.572 11.812 16.084 o
4 2 12 104.328 115.972 4.147 176.999 o
4 2 13 237.733 216.147 6.365 60.175 o
4 2 14 186.164 185.506 6.413 78.513 o
4 2 15 113.963 117.747 7.533 112.815 o
4 3 0 20874.300 21010.800 478.955 0.012 o
4 3 1 98.104 119.770 7.680 118.374 o
4 3 2 24008.300 24446.600 269.915 0.011 o
4 3 3 2276.780 2197.990 55.160 0.958 o
4 3 4 26194.500 28409.100 739.910 0.007 o
4 3 5 1535.320 1559.340 37.683 1.992 o
4 3 6 8337.190 8270.580 74.089 0.090 o
4 3 7 1363.000 1404.460 17.264 2.905 o
4 3 8 3072.450 3165.470 90.033 0.471 o
4 3 9 1137.090 1165.070 19.599 3.907 o
4 3 10 1975.340 1864.160 52.829 1.221 o
4 3 11 481.312 483.085 8.871 18.936 o
4 3 12 446.277 454.580 10.591 20.117 o
4 3 13 276.497 232.121 14.417 31.660 o
4 3 14 134.316 144.282 5.664 117.249 o
4 3 15 132.032 120.711 5.346 130.375 o
4 4 0 3654.450 3777.530 24.888 0.451 o
4 4 1 12469.700 12028.900 508.228 0.024 o
4 4 2 6076.700 6264.110 206.799 0.112 o
4 4 3 5603.850 5515.140 62.170 0.194 o
4 4 4 1638.400 1608.000 17.046 2.150 o
4 4 5 3501.650 3516.290 27.513 0.496 o
4 4 6 1636.280 1615.010 35.695 1.868 o
4 4 7 1662.880 1693.820 25.106 1.949 o
4 4 8 3395.100 3360.540 78.779 0.440 o
4 4 9 580.674 537.636 9.381 14.483 o
4 4 10 1928.600 1823.540 51.264 1.282 o
4 4 11 180.174 176.750 5.785 85.913 o
4 4 12 850.196 804.039 20.827 6.347 o
4 4 13 171.336 167.478 6.102 89.216 o
4 4 14 234.769 225.430 9.164 50.489 o
4 4 15 61.753 70.417 4.485 274.505 o
4 5 0 8673.330 8488.410 268.111 0.060 o
4 5 1 7180.930 8296.980 331.756 0.060 o
4 5 2 9659.020 9630.510 88.689 0.067 o
4 5 3 4459.520 4410.900 35.557 0.311 o
4 5 4 3952.820 3896.710 105.571 0.308 o
4 5 5 4299.410 4396.340 241.402 0.141 o
4 5 6 2193.140 2077.440 36.983 1.165 o
4 5 7 3252.250 3178.810 50.375 0.541 o
4 5 8 1548.100 1511.250 39.673 1.964 o
4 5 9 1318.890 1257.300 21.532 3.106 o
4 5 10 606.816 632.403 12.077 12.021 o
4 5 11 289.103 287.622 8.199 40.760 o
4 5 12 938.639 851.179 53.024 2.875 o
4 5 13 100.869 104.635 4.986 170.967 o
4 5 14 494.491 528.681 17.860 13.504 o
4 5 15 29.334 23.838 3.134 674.163 o
4 6 0 450.559 448.395 21.755 13.255 o
4 6 1 3916.240 3998.290 36.388 0.390 o
4 6 2 503.762 516.031 20.157 12.408 o
4 6 3 2790.420 2761.300 31.166 0.759 o
4 6 4 3230.280 3212.400 50.142 0.542 o
4 6 5 1234.280 1207.300 21.980 3.408 o
4 6 6 4242.960 3987.490 217.448 0.164 o
4 6 7 511.891 495.240 11.708 16.331 o
4 6 8 3165.390 3006.140 146.659 0.325 o
4 6 9 438.527 432.664 9.383 21.735 o
4 6 10 1614.060 1580.810 20.269 2.171 o
4 6 11 482.660 478.640 13.440 16.684 o
4 6 12 547.870 549.061 11.668 14.505 o
4 6 13 353.382 363.353 11.010 27.222 o
4 6 14 145.282 142.695 12.871 54.179 o
4 7 0 5.374 6.603 2.277 1945.740 o
4 7 1 4821.390 4686.710 102.043 0.230 o
4 7 2 139.924 140.317 6.341 107.913 o
4 7 3 3707.800 3814.890 125.187 0.299 o
4 7 4 233.469 237.421 8.857 50.726 o
4 7 5 3491.970 3459.900 74.894 0.429 o
4 7 6 131.506 131.752 6.838 109.024 o
4 7 7 2671.680 2671.610 29.612 0.821 o
4 7 8 248.645 253.849 9.871 44.258 o
4 7 9 1483.160 1470.720 40.788 2.049 o
4 7 10 137.244 139.104 5.681 116.858 o
4 7 11 728.648 752.141 30.463 6.002 o
4 7 12 198.403 220.420 7.708 63.691 o
4 7 13 369.226 383.949 12.363 24.185 o
4 7 14 152.022 153.110 17.943 33.228 o
4 8 0 1087.500 1131.960 23.914 3.952 o
4 8 1 22.084 23.743 3.098 762.376 o
4 8 2 1637.470 1618.230 136.255 0.567 o
4 8 3 98.734 95.596 6.652 143.260 o
4 8 4 1101.950 1149.850 34.040 3.330 o
4 8 5 1305.140 1366.710 24.600 2.910 o
4 8 6 2011.150 2246.980 115.221 0.603 o
4 8 7 736.854 743.091 40.471 4.597 o
4 8 8 1534.380 1460.790 29.672 2.235 o
4 8 9 702.463 730.063 26.552 6.911 o
4 8 10 663.365 652.128 21.452 8.682 o
4 8 11 598.674 615.829 34.202 6.516 o
4 8 13 327.157 332.696 13.447 26.750 o
4 9 0 1507.670 1285.680 106.884 0.863 o
4 9 1 908.922 962.207 17.872 5.669 o
4 9 2 1913.020 2005.900 37.379 1.382 o
4 9 3 707.201 695.176 16.902 8.855 o
4 9 4 1634.440 1697.990 29.777 1.916 o
4 9 5 426.788 424.257 12.349 20.442 o
4 9 6 1195.470 1334.080 59.301 1.941 o
4 9 7 425.981 435.657 32.423 8.838 o
4 9 8 802.149 809.285 16.419 7.267 o
4 9 9 296.411 289.582 12.239 32.242 o
4 9 10 478.213 550.606 17.940 13.583 o
4 9 11 246.699 243.146 19.927 23.066 o
4 9 12 228.335 264.253 10.448 44.591 o
4 10 0 33.973 44.172 4.981 346.641 o
4 10 1 354.308 391.339 12.017 25.176 o
4 10 2 183.178 201.520 7.807 69.372 o
4 10 3 789.287 917.398 21.044 6.352 o
4 10 4 144.216 162.524 13.235 51.178 o
4 10 5 919.122 905.825 24.805 5.162 o
4 10 6 291.156 304.826 11.583 33.237 o
4 10 7 971.151 1049.770 22.624 4.705 o
4 10 8 821.990 856.744 19.264 6.546 o
4 10 9 601.248 596.360 17.841 10.856 o
4 10 10 722.238 700.146 20.311 8.016 o
4 10 11 182.636 205.210 9.588 59.941 o
4 11 0 789.895 925.775 101.691 1.163 o
4 11 1 42.690 35.110 7.040 210.912 o
4 11 2 1192.940 1162.860 36.372 2.973 o
4 11 3 99.218 106.213 19.516 32.197 o
4 11 4 1246.420 1409.600 98.815 1.018 o
4 11 5 76.595 95.104 8.177 128.074 o
4 11 6 966.427 945.575 23.134 4.952 o
4 11 7 83.209 76.888 6.520 166.698 o
4 11 8 536.379 536.833 18.924 12.129 o
4 11 10 361.933 367.910 14.246 22.988 o
4 12 3 146.714 156.325 23.666 21.366 o
4 12 4 304.826 281.986 18.521 22.189 o
4 12 5 399.352 410.548 21.599 14.764 o
4 12 6 156.922 144.421 10.350 67.168 o
4 12 7 627.521 613.079 29.689 7.304 o
4 12 8 62.441 57.847 5.798 225.358 o
4 12 9 504.546 518.824 19.480 12.666 o
4 13 7 177.272 154.072 23.540 20.913 o
4 13 8 119.469 106.139 11.152 73.273 o
5 0 1 13981.500 13829.800 299.317 0.028 o
5 0 2 1932.640 2071.300 28.181 1.423 o
5 0 3 14863.500 15962.300 223.138 0.025 o
5 0 4 2377.640 2487.250 46.105 0.909 o
5 0 5 2693.640 2888.350 67.136 0.646 o
5 0 6 3550.260 3811.770 73.545 0.401 o
5 0 7 456.104 482.225 10.137 19.369 o
5 0 8 609.249 589.007 8.020 13.386 o
5 0 9 45.262 50.537 3.184 453.600 o
5 0 10 588.832 525.484 16.631 12.093 o
5 0 11 19.534 25.501 2.283 1035.450 o
5 0 12 273.744 290.606 7.452 44.097 o
5 0 13 0.960 2.732 1.925 3322.780 o
5 0 14 171.532 175.184 6.352 85.937 o
5 0 15 4.313 5.139 1.995 2515.940 o
5 1 0 24966.700 24126.300 391.878 0.010 o
5 1 1 8441.150 8763.940 172.743 0.074 o
5 1 2 24654.500 24846.100 301.415 0.010 o
5 1 3 7716.650 7947.160 106.394 0.097 o
5 1 4 12640.300 12234.300 45.450 0.041 o
5 1 5 5834.310 6056.190 178.254 0.129 o
5 1 6 7002.840 7587.370 162.082 0.101 o
5 1 7 4152.580 4273.920 72.626 0.316 o
5 1 8 3207.490 3245.960 44.438 0.555 o
5 1 9 1027.750 1051.390 20.395 4.575 o
5 1 10 813.426 828.289 18.969 6.767 o
5 1 11 159.988 157.998 5.490 100.970 o
5 1 12 384.873 405.318 7.594 26.967 o
5 1 13 13.217 16.630 2.997 981.686 o
5 1 14 116.640 131.238 5.639 133.757 o
5 1 15 7.175 5.969 2.373 1749.560 o
5 2 0 9521.010 9968.910 220.889 0.056 o
5 2 1 13818.700 13616.800 360.873 0.026 o
5 2 2 3357.330 3211.690 157.203 0.285 o
5 2 3 3501.810 3423.070 35.873 0.495 o
5 2 4 4128.020 3968.900 142.860 0.245 o
5 2 5 1145.810 1204.460 18.237 3.855 o
5 2 6 3256.300 3226.670 68.844 0.494 o
5 2 7 383.763 400.787 7.916 26.945 o
5 2 8 1977.770 2063.010 54.491 1.144 o
5 2 9 446.488 447.114 7.979 21.790 o
5 2 10 377.636 384.342 24.296 13.668 o
5 2 11 315.171 314.016 6.663 38.512 o
5 2 12 156.712 166.710 5.034 103.989 o
5 2 13 238.949 229.560 7.915 53.499 o
5 2 14 88.586 95.616 6.296 158.903 o
5 2 15 113.138 125.514 8.379 100.596 o
5 3 0 1724.530 1721.510 31.134 1.772 o
5 3 1 19840.600 20489.000 388.162 0.014 o
5 3 2 178.691 190.044 5.361 86.367 o
5 3 3 20083.200 20210.300 454.061 0.013 o
5 3 4 1133.860 1115.430 22.725 3.871 o
5 3 5 14195.400 14821.500 194.991 0.029 o
5 3 6 751.847 688.939 12.219 9.090 o
5 3 7 6214.740 6108.840 95.040 0.151 o
5 3 8 174.820 182.115 5.982 85.737 o
5 3 9 2264.710 2245.630 21.280 1.155 o
5 3 10 188.528 210.389 7.742 67.176 o
5 3 11 737.770 722.154 23.856 7.133 o
5 3 12 34.455 42.986 3.160 546.035 o
5 3 13 262.719 263.263 7.134 48.585 o
5 3 14 115.647 128.439 7.380 111.295 o
5 3 15 26.370 28.103 4.252 487.569 o
5 4 0 4646.540 4470.580 163.237 0.192 o
5 4 1 1091.790 1197.730 25.364 3.744 o
5 4 2 5618.560 5840.220 138.002 0.155 o
5 4 3 1698.860 1709.120 25.608 1.885 o
5 4 4 3295.910 3198.420 53.477 0.524 o
5 4 5 1707.750 1705.160 79.756 1.067 o
5 4 6 835.660 846.367 15.492 6.894 o
5 4 7 2303.290 2233.190 63.051 0.884 o
5 4 8 289.955 319.674 8.488 38.225 o
5 4 9 2368.980 2357.850 66.093 0.818 o
5 4 10 131.215 130.945 5.257 128.424 o
5 4 11 1115.210 1103.640 29.773 3.589 o
5 4 12 111.691 101.423 6.483 134.884 o
5 4 13 373.648 365.599 9.453 27.466 o
5 4 14 50.464 53.926 3.751 375.246 o
5 4 15 206.936 205.484 14.638 37.395 o
5 5 0 3672.980 3458.940 121.984 0.320 o
5 5 1 6956.750 7602.050 179.869 0.097 o
5 5 2 4225.670 4274.500 99.044 0.282 o
5 5 3 4142.030 4000.750 154.442 0.230 o
5 5 4 6887.720 6713.900 110.588 0.123 o
5 5 5 4854.670 4743.250 66.085 0.252 o
5 5 6 3779.910 3654.400 37.753 0.430 o
5 5 7 2208.690 2213.410 84.187 0.768 o
5 5 8 1396.760 1397.740 47.974 2.019 o
5 5 9 1265.400 1439.470 34.317 2.609 o
5 5 10 901.755 902.234 17.373 5.965 o
5 5 11 597.095 572.931 12.206 12.832 o
5 5 12 177.290 183.568 6.399 81.985 o
5 5 13 277.096 293.170 8.013 42.315 o
5 5 14 10.305 8.959 2.392 1512.480 o
5 6 0 886.173 863.030 23.537 5.600 o
5 6 1 239.805 248.889 11.135 42.148 o
5 6 2 500.927 484.388 16.451 14.542 o
5 6 3 1137.270 961.011 40.133 3.143 o
5 6 4 122.812 140.422 8.874 88.857 o
5 6 5 2825.210 2611.420 33.362 0.767 o
5 6 6 72.272 79.069 5.119 220.922 o
5 6 7 2023.020 1941.790 31.943 1.371 o
5 6 8 555.013 563.404 16.588 12.400 o
5 6 9 1265.800 1260.780 21.991 3.234 o
5 6 10 642.803 671.027 18.285 9.561 o
5 6 11 882.468 887.944 16.591 6.230 o
5 6 12 462.221 444.377 14.600 17.228 o
5 6 13 259.303 270.388 8.609 44.964 o
5 6 14 308.711 289.354 9.767 35.592 o
5 7 0 3220.720 3437.990 54.121 0.514 o
5 7 2 3262.440 3103.400 111.066 0.396 o
5 7 3 226.023 239.582 11.604 42.932 o
5 7 4 3500.220 3513.920 60.039 0.451 o
5 7 5 157.026 138.787 6.908 94.796 o
5 7 6 2908.810 2879.390 30.143 0.705 o
5 7 7 2.569 12.996 3.815 843.633 o
5 7 8 2037.820 2256.420 43.611 1.154 o
5 7 9 248.801 259.796 11.235 40.245 o
5 7 10 1104.180 1102.890 20.193 4.134 o
5 7 11 238.651 247.430 11.399 41.625 o
5 7 12 537.115 464.673 20.329 12.194 o
5 7 13 212.528 221.496 8.602 56.813 o
5 8 0 25.896 27.939 4.016 526.216 o
5 8 1 11.171 7.789 2.904 1164.440 o
5 8 2 38.962 43.956 4.007 419.763 o
5 8 3 280.967 263.545 10.502 38.313 o
5 8 4 47.661 50.340 5.523 269.681 o
5 8 5 750.232 742.574 16.180 8.184 o
5 8 6 1073.060 1000.180 17.508 4.645 o
5 8 7 556.309 616.038 18.531 11.221 o
5 8 8 984.630 1040.550 19.524 4.873 o
5 8 9 577.397 466.791 22.588 10.639 o
5 8 10 763.569 784.423 28.020 6.055 o
5 8 11 355.180 349.942 10.800 27.797 o
5 8 12 534.938 559.162 18.208 12.226 o
5 9 0 134.616 164.796 8.884 81.137 o
5 9 1 1518.660 1578.610 53.871 1.653 o
5 9 2 731.722 747.562 18.774 7.941 o
5 9 3 1287.080 1281.630 55.167 2.002 o
5 9 4 781.955 854.380 22.121 6.510 o
5 9 5 958.880 988.840 21.999 4.967 o
5 9 6 678.603 783.014 25.681 7.047 o
5 9 7 959.395 969.492 35.388 3.939 o
5 9 8 698.702 681.000 33.446 5.899 o
5 9 9 455.033 485.989 12.815 17.833 o
5 9 10 452.183 463.087 12.457 18.566 o
5 9 11 204.378 225.706 10.839 49.202 o
5 9 12 348.389 373.990 23.832 14.611 o
5 10 0 53.612 72.494 17.580 41.799 o
5 10 1 63.956 62.299 7.848 153.174 o
5 10 2 112.906 114.879 10.084 83.671 o
5 10 3 143.823 141.074 8.609 84.294 o
5 10 4 313.743 294.831 26.036 14.285 o
5 10 5 242.618 236.317 9.898 46.181 o
5 10 6 479.063 472.907 17.015 14.943 o
5 10 7 476.611 470.434 18.832 14.060 o
5 10 8 435.524 436.835 15.397 17.706 o
5 10 9 626.649 577.147 23.467 9.026 o
5 10 10 252.093 281.895 11.262 38.647 o
5 10 11 461.568 467.007 14.183 17.133 o
5 11 0 34.444 39.393 7.301 205.775 o
5 11 1 1166.030 1281.140 34.228 2.994 o
5 11 2 82.292 80.576 7.645 139.677 o
5 11 3 1257.030 1314.110 36.452 2.674 o
5 11 4 10.482 11.278 4.167 661.768 o
5 11 6 6.268 6.158 3.906 806.553 o
5 11 7 596.692 603.268 21.364 9.828 o
5 11 8 8.949 9.661 6.500 309.329 o
5 11 9 340.227 322.921 13.361 26.380 o
5 11 10 40.040 36.562 4.848 351.329 o
5 12 0 4.455 2.422 5.376 466.480 o
5 12 4 306.318 303.488 33.001 10.110 o
5 12 5 93.698 96.872 11.056 80.967 o
5 12 6 540.240 572.955 33.455 7.184 o
5 12 7 79.634 71.325 7.767 141.707 o
5 12 8 362.333 321.705 20.680 17.416 o
5 13 6 229.742 232.693 28.186 14.267 o
5 13 7 215.156 217.758 20.762 23.275 o
6 0 0 11615.800 12665.800 193.701 0.040 o
6 0 1 284.381 288.216 11.297 35.107 o
6 0 2 13622.200 14280.900 252.220 0.029 o
6 0 3 3965.420 4123.870 39.035 0.374 o
6 0 4 10767.100 11224.800 204.685 0.047 o
6 0 5 2504.300 2411.140 77.683 0.703 o
6 0 6 9116.710 9616.940 131.050 0.068 o
6 0 7 1733.650 1784.450 31.116 1.726 o
6 0 8 4920.160 4869.780 64.556 0.245 o
6 0 9 166.251 166.980 6.324 89.816 o
6 0 10 1847.860 1923.040 53.963 1.269 o
6 0 11 12.899 15.223 2.539 1220.170 o
6 0 12 801.119 841.537 34.059 4.915 o
6 0 13 14.818 14.562 2.561 1165.400 o
6 0 14 146.944 140.415 5.834 109.304 o
6 0 15 24.838 30.614 6.290 280.239 o
6 1 0 56.316 50.960 2.813 426.098 o
6 1 1 731.368 769.203 22.973 7.137 o
6 1 2 405.258 413.666 6.646 25.958 o
6 1 3 412.148 390.320 14.358 20.188 o
6 1 4 11.601 12.157 1.973 1709.120 o
6 1 5 484.179 494.480 9.291 18.404 o
6 1 6 431.600 459.031 11.085 20.350 o
6 1 7 1496.390 1467.090 36.851 2.127 o
6 1 8 788.495 787.481 13.354 7.890 o
6 1 9 1505.010 1439.180 25.440 2.392 o
6 1 10 999.006 999.716 43.715 3.201 o
6 1 11 410.090 432.225 14.995 18.957 o
6 1 12 968.268 1017.800 20.582 4.946 o
6 1 13 124.398 133.666 5.361 131.019 o
6 1 14 474.077 509.298 15.219 15.546 o
6 2 0 4856.780 5192.040 58.258 0.242 o
6 2 1 8476.510 8725.340 265.350 0.061 o
6 2 2 5190.280 5477.080 43.962 0.221 o
6 2 3 7861.100 8306.490 302.764 0.061 o
6 2 4 4372.480 4546.190 110.241 0.252 o
6 2 5 8746.580 9416.370 82.161 0.077 o
6 2 6 2822.510 2893.490 56.217 0.653 o
6 2 7 3652.040 3766.630 41.220 0.437 o
6 2 8 1910.700 1900.930 24.235 1.553 o
6 2 9 2105.170 2160.760 55.446 1.043 o
6 2 10 1102.380 1169.990 17.829 4.111 o
6 2 11 646.278 674.567 18.421 9.458 o
6 2 12 334.890 348.916 9.505 30.954 o
6 2 13 270.800 281.072 10.681 38.069 o
6 2 14 96.678 101.467 5.418 167.896 o
6 3 0 460.597 536.244 10.299 18.043 o
6 3 1 3098.650 3006.060 77.303 0.517 o
6 3 2 154.455 154.582 4.628 111.902 o
6 3 3 834.033 857.291 12.113 7.186 o
6 3 4 247.161 241.395 8.508 49.248 o
6 3 5 755.701 757.520 17.092 7.903 o
6 3 6 368.646 365.266 8.637 28.662 o
6 3 7 928.089 921.212 21.240 5.391 o
6 3 8 36.849 40.863 3.369 510.256 o
6 3 9 1551.610 1582.840 22.006 2.247 o
6 3 10 90.226 95.239 4.112 211.299 o
6 3 11 1191.350 1146.560 30.824 3.253 o
6 3 12 40.163 41.854 3.194 507.311 o
6 3 13 730.714 746.637 16.560 8.323 o
6 3 14 82.901 86.998 5.375 192.655 o
6 4 0 1451.490 1345.350 34.435 2.354 o
6 4 1 9312.460 9688.630 179.843 0.062 o
6 4 2 1565.360 1578.670 24.719 2.184 o
6 4 3 10180.800 12506.300 2092.790 0.003 o
6 4 4 314.216 319.555 8.829 35.099 o
6 4 5 5598.170 5545.930 48.387 0.198 o
6 4 6 157.383 162.316 6.657 91.850 o
6 4 7 3987.810 4182.830 186.650 0.197 o
6 4 8 49.184 47.203 6.908 202.928 o
6 4 9 1991.760 2132.540 51.563 1.146 o
6 4 10 16.906 17.979 2.345 1166.660 o
6 4 11 1310.400 1355.640 28.835 2.781 o
6 4 12 11.221 13.541 2.365 1405.590 o
6 4 13 500.008 486.331 32.681 7.980 o
6 4 14 7.281 7.485 2.328 1748.020 o
6 5 0 579.555 603.655 20.486 10.328 o
6 5 1 2297.850 2108.550 385.741 0.088 o
6 5 2 777.319 732.090 46.807 3.807 o
6 5 3 2349.270 2489.040 40.898 0.949 o
6 5 4 1338.050 1347.550 38.425 2.426 o
6 5 5 34.627 37.596 3.663 496.345 o
6 5 6 1116.810 1142.400 39.647 3.009 o
6 5 7 849.385 881.163 28.071 5.269 o
6 5 8 1079.990 1096.570 26.996 3.874 o
6 5 9 582.653 568.327 11.807 13.335 o
6 5 10 340.923 341.270 11.648 28.004 o
6 5 11 606.970 584.605 14.625 11.808 o
6 5 12 192.785 183.214 6.949 73.843 o
6 5 13 303.243 314.836 12.059 31.044 o
6 6 0 10218.900 10647.800 162.353 0.054 o
6 6 1 733.447 809.718 37.712 4.824 o
6 6 2 7112.900 7114.080 180.941 0.098 o
6 6 3 1636.970 1731.000 50.834 1.541 o
6 6 4 4780.750 4903.550 44.304 0.263 o
6 6 5 1136.590 1183.050 19.101 3.896 o
6 6 6 3609.920 3868.450 213.681 0.185 o
6 6 7 1369.310 1315.290 54.826 1.905 o
6 6 8 1646.360 1582.680 43.362 1.735 o
6 6 9 540.479 556.809 23.341 10.260 o
6 6 10 742.059 733.358 15.477 8.441 o
6 6 11 202.610 204.895 7.871 63.796 o
6 6 12 273.587 312.780 22.264 18.285 o
6 6 13 69.098 71.606 4.253 267.583 o
6 7 0 839.585 806.229 19.758 6.548 o
6 7 1 458.719 495.294 22.215 12.445 o
6 7 2 530.752 508.809 17.294 13.188 o
6 7 3 195.345 208.034 8.492 62.233 o
6 7 4 1007.200 1023.210 22.301 4.618 o
6 7 5 208.066 211.511 9.882 53.429 o
6 7 6 1569.320 1613.650 72.687 1.256 o
6 7 7 109.434 111.736 6.145 138.457 o
6 7 8 1103.360 1078.000 19.754 4.211 o
6 7 9 103.879 102.963 7.033 130.310 o
6 7 10 887.856 800.024 15.494 6.642 o
6 7 11 38.811 37.363 3.390 506.335 o
6 7 12 433.541 407.076 10.200 22.078 o
6 8 0 4751.860 5204.140 223.547 0.136 o
6 8 1 1240.190 1284.710 24.021 3.204 o
6 8 2 4208.060 4213.600 49.377 0.335 o
6 8 3 1798.930 1833.980 65.022 1.184 o
6 8 4 3684.500 4039.300 56.328 0.396 o
6 8 5 865.332 880.451 20.748 5.972 o
6 8 6 2189.780 2204.410 179.757 0.325 o
6 8 7 619.817 554.454 38.073 5.814 o
6 8 8 1086.630 1022.690 36.795 3.386 o
6 8 9 277.302 270.362 12.786 33.498 o
6 8 10 393.127 373.459 10.650 24.813 o
6 8 11 48.798 47.666 4.088 366.891 o
6 8 12 141.549 140.985 7.019 100.036 o
6 9 0 32.261 34.242 7.048 222.626 o
6 9 1 194.284 227.535 15.907 34.019 o
6 9 2 63.005 76.109 6.173 198.420 o
6 9 3 416.837 422.885 15.973 18.146 o
6 9 4 141.223 154.812 8.988 79.803 o
6 9 5 355.308 376.799 26.118 12.940 o
6 9 6 309.496 318.184 13.757 27.817 o
6 9 7 510.600 508.760 20.261 12.304 o
6 9 8 224.130 237.759 10.922 45.399 o
6 9 9 326.308 304.473 15.301 25.043 o
6 9 10 149.547 156.827 7.674 87.618 o
6 9 11 163.372 166.852 9.098 71.325 o
6 10 0 241.102 243.030 10.967 42.817 o
6 10 1 2999.390 3085.520 45.441 0.617 o
6 10 2 384.651 364.949 32.261 9.537 o
6 10 3 2049.630 2004.910 31.237 1.331 o
6 10 4 334.922 352.830 12.185 27.325 o
6 10 5 1599.290 1448.400 35.813 2.020 o
6 10 6 314.992 367.726 22.268 16.620 o
6 10 7 654.745 723.948 23.718 7.899 o
6 10 8 109.738 115.264 12.171 66.102 o
6 10 9 335.315 350.579 11.075 28.816 o
6 10 10 64.830 62.807 6.752 184.260 o
6 11 0 121.982 127.995 8.486 95.412 o
6 11 1 304.167 310.820 14.188 27.710 o
6 11 2 84.096 80.275 7.021 152.330 o
6 11 3 527.317 507.806 38.349 6.313 o
6 11 4 15.071 16.694 4.473 544.287 o
6 11 5 454.878 434.543 24.708 11.780 o
6 11 6 42.319 39.840 6.027 259.612 o
6 11 7 257.795 259.502 45.852 6.040 o
6 11 8 52.623 49.470 5.849 244.457 o
6 11 9 179.409 183.493 15.579 37.578 o
6 12 0 715.113 612.695 33.469 5.993 o
6 12 1 893.769 793.633 47.228 3.422 o
6 12 2 570.141 550.991 32.917 7.188 o
6 12 4 378.625 305.774 23.244 15.121 o
6 12 6 161.927 182.474 22.944 21.836 o
6 12 7 244.028 217.949 14.215 35.050 o
7 0 1 2613.490 2415.470 65.125 0.739 o
7 0 2 4.704 6.264 1.759 2848.400 o
7 0 3 2907.160 2875.370 48.096 0.660 o
7 0 4 63.097 75.543 4.111 283.205 o
7 0 5 2128.700 2083.010 58.505 1.024 o
7 0 6 274.426 265.662 6.730 47.398 o
7 0 7 1410.000 1371.860 23.750 2.686 o
7 0 8 511.463 501.281 10.305 16.848 o
7 0 9 676.851 636.552 14.960 10.073 o
7 0 10 760.743 758.934 12.731 8.454 o
7 0 11 370.306 358.257 9.079 28.347 o
7 0 12 1128.280 1104.650 29.660 3.553 o
7 0 13 155.442 139.383 6.840 95.950 o
7 0 14 523.180 551.442 15.914 13.463 o
7 1 0 155.127 154.397 5.482 104.426 o
7 1 1 711.518 697.838 14.818 9.162 o
7 1 2 767.358 770.902 13.197 8.243 o
7 1 3 439.738 441.862 10.980 20.439 o
7 1 4 2001.150 2087.890 62.961 1.042 o
7 1 5 650.160 658.179 11.376 11.086 o
7 1 6 3192.050 3251.500 37.788 0.570 o
7 1 7 106.927 111.096 4.752 165.629 o
7 1 8 3402.670 3509.220 94.139 0.397 o
7 1 9 561.459 583.452 10.682 14.009 o
7 1 10 2167.920 2190.120 24.520 1.222 o
7 1 11 562.525 581.804 11.363 13.797 o
7 1 12 819.346 830.083 22.752 6.242 o
7 1 13 297.528 283.281 10.180 36.249 o
7 1 14 188.236 208.428 8.533 63.581 o
7 2 0 1671.970 1753.220 39.969 1.679 o
7 2 1 682.801 725.480 11.474 9.946 o
7 2 2 1820.930 1902.430 47.921 1.371 o
7 2 3 1418.740 1421.330 38.870 2.225 o
7 2 4 2259.120 2317.950 30.738 1.092 o
7 2 5 1547.390 1527.280 27.526 2.204 o
7 2 6 831.785 851.525 14.944 6.962 o
7 2 7 1291.440 1287.610 15.980 3.292 o
7 2 8 374.732 404.789 13.181 22.564 o
7 2 9 1668.050 1674.690 30.937 1.870 o
7 2 10 559.656 591.152 17.665 11.670 o
7 2 11 655.414 628.965 14.259 10.633 o
7 2 12 348.283 354.300 8.458 30.900 o
7 2 13 381.723 392.059 9.037 26.420 o
7 2 14 272.035 281.350 23.888 17.025 o
7 3 0 191.116 174.371 11.347 52.864 o
7 3 1 3712.650 4128.930 102.335 0.322 o
7 3 2 207.465 206.984 7.312 64.869 o
7 3 3 2312.330 2326.720 77.433 0.768 o
7 3 4 206.973 210.559 7.027 65.784 o
7 3 5 3746.870 3836.000 112.263 0.316 o
7 3 6 922.165 991.574 40.614 3.617 o
7 3 7 3261.100 3275.030 38.751 0.551 o
7 3 8 1357.950 1516.390 48.417 1.982 o
7 3 9 1574.700 1709.220 86.663 1.028 o
7 3 10 656.687 640.230 13.984 10.579 o
7 3 11 497.286 498.732 10.839 17.146 o
7 3 12 253.019 244.049 7.229 51.661 o
7 3 13 187.551 198.324 7.067 72.526 o
7 4 0 2408.880 2669.070 97.559 0.593 o
7 4 1 266.338 294.383 8.581 42.447 o
7 4 2 3369.400 3442.590 77.903 0.440 o
7 4 3 119.521 111.778 5.966 133.919 o
7 4 4 3531.260 3716.470 122.628 0.320 o
7 4 5 395.577 402.054 15.171 19.925 o
7 4 6 2585.900 2809.870 54.604 0.737 o
7 4 7 617.542 645.566 33.864 6.385 o
7 4 8 1819.660 1807.300 46.057 1.433 o
7 4 9 255.081 252.431 6.762 51.768 o
7 4 10 514.579 552.649 14.103 14.403 o
7 4 11 767.720 778.347 22.875 6.813 o
7 4 12 128.154 114.811 6.479 119.986 o
7 4 13 362.228 368.657 8.554 29.104 o
7 5 0 3135.060 3451.700 83.411 0.460 o
7 5 1 2073.670 2390.030 89.366 0.744 o
7 5 2 3376.120 3357.730 84.275 0.431 o
7 5 3 4532.050 4674.010 104.411 0.245 o
7 5 4 1678.270 1636.090 42.384 1.692 o
7 5 5 2663.230 2804.730 37.377 0.777 o
7 5 6 726.522 789.569 14.927 8.376 o
7 5 7 2704.920 2762.960 28.649 0.795 o
7 5 8 170.258 174.357 7.362 79.797 o
7 5 9 917.873 947.645 36.291 4.041 o
7 5 10 83.885 87.640 5.164 196.970 o
7 5 11 397.955 434.844 16.620 18.082 o
7 5 12 65.026 69.971 4.173 282.348 o
7 5 13 109.134 124.020 7.504 114.068 o
7 6 0 653.945 691.150 18.027 9.336 o
7 6 1 2262.880 2516.350 38.766 0.995 o
7 6 2 1226.970 1198.590 43.724 2.553 o
7 6 3 1207.710 1297.610 23.667 3.291 o
7 6 4 1217.430 1200.680 27.735 3.243 o
7 6 5 1050.490 1086.880 20.994 4.355 o
7 6 6 1190.830 1258.310 50.241 2.307 o
7 6 7 431.069 448.839 26.400 11.205 o
7 6 8 651.815 645.271 15.703 10.226 o
7 6 9 117.450 125.249 6.299 125.854 o
7 6 10 356.904 332.589 10.410 28.753 o
7 6 12 120.191 125.060 5.785 131.345 o
7 7 0 8095.440 8464.870 119.009 0.087 o
7 7 1 33.740 50.988 11.230 98.582 o
7 7 3 425.021 422.169 16.038 17.840 o
7 7 4 3854.450 4066.760 64.451 0.365 o
7 7 5 578.333 591.484 14.505 12.346 o
7 7 6 998.847 1029.740 47.057 2.966 o
7 7 7 280.495 255.291 21.989 19.146 o
7 7 8 230.606 219.637 11.964 42.453 o
7 7 9 202.107 213.553 8.522 60.049 o
7 7 10 158.310 152.176 8.714 77.345 o
7 7 11 66.734 70.981 4.303 271.264 o
7 7 12 54.442 72.267 10.703 98.495 o
7 8 0 59.468 70.520 6.323 200.565 o
7 8 1 2168.270 2356.950 76.638 0.812 o
7 8 2 326.093 333.640 14.667 25.147 o
7 8 3 1617.410 1610.790 51.719 1.594 o
7 8 4 333.647 316.414 12.811 27.730 o
7 8 5 907.234 934.581 35.814 4.140 o
7 8 6 120.134 132.617 8.294 97.353 o
7 8 7 560.405 592.987 16.491 12.038 o
7 8 8 84.887 82.875 5.435 191.069 o
7 8 9 157.809 161.482 7.569 84.691 o
7 8 10 60.377 58.173 4.726 279.084 o
7 8 11 56.625 60.384 4.294 309.364 o
7 9 0 1296.330 1350.660 33.170 2.674 o
7 9 1 3871.050 3848.410 159.841 0.239 o
7 9 2 1371.000 1336.620 39.960 2.333 o
7 9 3 2098.910 1771.070 45.098 1.254 o
7 9 4 1007.990 1069.710 19.871 4.658 o
7 9 5 990.147 1098.760 47.140 2.911 o
7 9 6 497.165 503.216 14.849 15.180 o
7 9 7 359.093 356.628 12.338 25.548 o
7 9 8 177.629 169.088 9.602 64.640 o
7 9 9 56.775 63.372 5.515 242.254 o
7 9 10 54.107 47.949 4.565 316.214 o
7 10 0 656.878 772.300 50.017 3.729 o
7 10 1 219.491 201.960 13.836 38.820 o
7 10 2 570.036 514.734 30.930 7.827 o
7 10 3 257.851 264.692 28.000 13.836 o
7 10 4 459.310 444.976 19.422 14.411 o
7 10 5 273.335 282.181 19.157 22.511 o
7 10 6 336.088 353.045 15.652 22.963 o
7 10 7 169.987 110.624 15.529 41.303 o
7 10 8 177.394 167.336 11.451 55.027 o
7 10 9 68.309 62.159 5.836 212.620 o
7 11 0 57.692 37.663 5.051 289.670 o
7 11 1 2002.780 1958.510 43.761 1.269 o
7 11 2 64.282 57.254 6.174 208.279 o
7 11 3 1175.710 1012.920 47.145 2.652 o
7 11 4 187.579 157.446 13.973 43.496 o
7 11 5 737.615 627.270 43.725 4.392 o
7 11 6 76.551 75.541 7.721 143.384 o
7 11 7 189.858 179.825 10.972 54.340 o
7 12 2 200.186 206.331 21.392 22.921 o
7 12 3 141.012 93.393 16.486 40.459 o
8 0 0 88.989 119.716 7.223 131.126 o
8 0 1 102.263 104.160 4.624 177.141 o
8 0 2 205.165 240.063 20.679 23.370 o
8 0 3 1378.880 1401.210 58.393 1.757 o
8 0 4 505.839 524.029 9.561 16.950 o
8 0 5 2329.350 2499.970 76.171 0.747 o
8 0 6 1795.690 1833.390 21.635 1.734 o
8 0 7 2399.480 2442.930 54.821 0.861 o
8 0 8 1503.580 1477.380 22.104 2.425 o
8 0 9 1026.670 1086.010 18.088 4.630 o
8 0 10 487.744 445.700 22.739 12.121 o
8 0 11 548.206 533.208 18.623 12.061 o
8 0 12 110.622 108.905 5.363 152.060 o
8 0 13 251.664 245.727 7.595 50.742 o
8 1 0 755.798 790.823 12.625 8.334 o
8 1 1 5480.760 5162.420 150.821 0.162 o
8 1 2 794.921 807.898 12.313 7.824 o
8 1 3 4042.620 4166.030 125.052 0.266 o
8 1 4 1329.470 1346.140 39.998 2.391 o
8 1 5 1978.950 2013.220 26.734 1.420 o
8 1 6 419.505 422.144 11.618 21.357 o
8 1 7 1172.870 1203.310 20.248 3.681 o
8 1 8 118.120 126.141 4.919 145.068 o
8 1 9 552.026 538.192 16.412 12.784 o
8 1 10 214.563 227.973 9.345 53.002 o
8 1 11 224.422 216.469 7.171 60.344 o
8 1 12 222.991 215.913 10.597 48.115 o
8 1 13 148.095 155.123 6.210 101.382 o
8 2 0 71.380 68.891 3.741 287.742 o
8 2 1 845.374 894.972 23.909 5.714 o
8 2 2 562.247 562.921 10.792 14.224 o
8 2 3 1288.810 1292.180 21.547 3.140 o
8 2 4 1177.270 1256.840 21.590 3.524 o
8 2 5 2158.510 2015.430 59.788 1.015 o
8 2 6 1339.690 1315.530 34.066 2.593 o
8 2 7 1134.280 1117.630 38.873 3.037 o
8 2 8 1554.650 1565.640 65.116 1.409 o
8 2 9 537.697 551.129 18.611 12.094 o
8 2 10 932.276 961.591 14.215 5.785 o
8 2 11 168.596 166.461 6.471 87.932 o
8 2 12 433.134 407.724 15.537 18.174 o
8 2 13 45.665 45.867 6.729 215.234 o
8 3 0 5321.530 5628.470 242.365 0.114 o
8 3 1 1888.060 1942.190 41.791 1.379 o
8 3 2 4513.120 4505.140 180.310 0.181 o
8 3 3 509.366 561.979 13.405 14.705 o
8 3 4 2877.080 2880.930 85.195 0.541 o
8 3 5 499.737 511.683 23.844 10.946 o
8 3 6 2036.960 2114.720 27.089 1.329 o
8 3 7 144.411 144.238 6.502 103.043 o
8 3 8 1118.600 1160.070 17.261 4.088 o
8 3 9 31.357 32.671 3.431 566.502 o
8 3 10 435.337 451.679 16.282 16.884 o
8 3 11 41.721 48.037 4.527 355.038 o
8 3 12 238.586 213.054 10.084 47.819 o
8 4 0 1829.400 1961.150 40.010 1.439 o
8 4 1 523.664 577.493 26.842 9.166 o
8 4 2 1826.010 1828.450 28.295 1.637 o
8 4 3 764.773 771.493 44.841 3.982 o
8 4 4 1042.600 1062.400 50.167 2.687 o
8 4 5 316.600 327.151 11.245 30.835 o
8 4 6 1005.920 1089.070 85.165 1.423 o
8 4 7 311.722 313.799 9.364 34.783 o
8 4 8 427.866 442.897 20.666 14.396 o
8 4 9 282.525 286.418 10.513 36.943 o
8 4 10 415.085 405.954 9.325 23.723 o
8 4 11 333.635 361.655 15.919 22.571 o
8 4 12 200.592 177.847 6.347 75.428 o
8 5 0 4730.110 5047.650 186.582 0.162 o
8 5 1 397.726 367.101 24.058 13.618 o
8 5 3 465.549 414.889 23.017 12.617 o
8 5 4 3118.240 3298.830 41.971 0.573 o
8 5 5 595.018 555.162 33.754 6.818 o
8 5 6 1568.940 1596.490 26.726 2.130 o
8 5 7 540.184 553.888 17.132 12.590 o
8 5 8 427.705 460.330 19.000 15.226 o
8 5 9 375.785 372.440 27.356 11.955 o
8 5 10 197.178 186.239 6.189 75.983 o
8 5 11 296.149 304.600 8.520 38.319 o
8 5 12 97.328 104.750 7.257 130.004 o
8 6 0 3067.620 3202.300 51.342 0.574 o
8 6 1 185.489 200.221 10.001 57.879 o
8 6 2 1575.660 1647.150 31.629 1.997 o
8 6 3 77.889 88.576 8.834 117.167 o
8 6 4 720.650 748.017 22.030 7.487 o
8 6 5 43.130 44.341 4.048 397.722 o
8 6 6 266.848 266.106 10.759 39.107 o
8 6 7 160.450 173.084 9.085 71.361 o
8 6 8 88.204 99.506 5.723 170.660 o
8 6 9 328.968 323.285 9.892 31.989 o
8 6 10 1.709 3.288 2.268 2380.040 o
8 6 11 147.166 153.326 7.779 88.222 o
8 7 0 304.280 317.557 12.412 30.290 o
8 7 1 2646.260 3087.000 51.258 0.692 o
8 7 2 244.454 258.948 11.251 40.729 o
8 7 3 2584.340 2546.750 51.908 0.791 o
8 7 4 635.126 641.917 20.805 9.234 o
8 7 5 2060.250 2065.010 111.696 0.631 o
8 7 6 684.468 649.707 17.467 9.328 o
8 7 7 940.964 957.718 23.030 5.062 o
8 7 8 227.263 235.178 8.907 51.785 o
8 7 9 631.535 660.808 59.078 3.068 o
8 7 10 93.812 92.097 6.116 159.823 o
8 8 0 663.497 762.258 22.397 7.897 o
8 8 1 317.460 295.033 20.805 18.892 o
8 8 2 548.468 615.468 27.390 8.555 o
8 8 3 332.635 323.943 16.056 23.292 o
8 8 4 297.876 251.884 22.432 18.259 o
8 8 5 95.540 99.109 6.513 147.089 o
8 8 6 62.286 62.076 5.074 254.097 o
8 8 7 31.074 30.587 3.695 535.113 o
8 8 8 13.871 12.557 4.106 644.849 o
8 8 9 24.563 28.897 3.745 577.135 o
8 8 10 71.010 43.796 8.537 137.645 o
8 9 0 706.808 752.865 22.730 7.468 o
8 9 1 720.380 663.843 29.829 6.436 o
8 9 2 1116.450 1172.130 23.918 3.774 o
8 9 3 828.697 799.283 63.947 2.425 o
8 9 4 923.968 1039.550 102.621 1.097 o
8 9 5 559.596 636.568 19.539 10.677 o
8 9 6 726.760 670.664 17.755 8.606 o
8 9 7 345.698 376.229 21.667 16.309 o
8 9 8 447.994 466.235 14.125 17.630 o
8 9 9 190.641 125.492 22.783 22.082 o
8 10 0 81.421 95.038 7.289 142.968 o
8 10 1 359.068 339.760 16.249 21.589 o
8 10 2 103.909 108.017 7.853 115.797 o
8 10 3 190.085 171.523 9.926 60.096 o
8 10 4 3.351 3.389 2.999 1386.010 o
8 10 5 79.845 81.796 12.566 70.670 o
8 10 6 25.096 24.902 3.787 580.144 o
8 10 7 16.299 16.838 3.800 681.286 o
8 11 0 826.217 735.991 45.809 3.773 o
8 11 1 108.153 105.284 11.237 75.050 o
8 11 2 634.705 637.870 34.698 6.150 o
8 11 3 195.732 175.855 12.656 46.652 o
8 11 4 633.164 740.499 33.125 6.155 o
8 11 5 209.497 180.265 15.060 36.967 o
8 12 0 15.365 8.003 3.257 915.001 o
8 12 1 108.980 107.156 12.171 66.920 o
8 12 2 23.315 13.529 5.356 386.899 o
8 12 3 70.142 46.504 13.418 67.214 o
9 0 1 11274.200 12151.800 440.343 0.029 o
9 0 2 15.808 22.380 3.134 843.581 o
9 0 3 8923.470 9393.100 235.901 0.060 o
9 0 4 94.582 89.080 4.671 195.103 o
9 0 5 3345.740 3700.410 152.425 0.281 o
9 0 6 108.619 102.096 5.030 163.301 o
9 0 7 1235.470 1321.370 32.065 2.875 o
9 0 8 176.331 168.530 9.035 68.311 o
9 0 9 243.654 241.299 7.838 51.829 o
9 0 10 48.919 55.236 6.168 230.363 o
9 0 11 85.938 79.817 4.682 213.776 o
9 1 0 18.154 18.119 2.466 1081.540 o
9 1 1 318.221 326.160 11.778 29.947 o
9 1 2 0.255 10.797 3.397 1096.130 o
9 1 3 1111.770 1037.160 20.125 4.243 o
9 1 4 4.377 8.919 2.571 1618.130 o
9 1 5 1264.750 1216.400 66.177 1.727 o
9 1 6 17.715 18.598 3.152 837.619 o
9 1 7 910.052 943.653 21.811 5.381 o
9 1 8 23.124 30.733 3.105 708.802 o
9 1 9 369.545 349.107 10.519 27.177 o
9 1 10 41.732 41.598 5.619 283.939 o
9 1 11 140.961 135.688 6.616 105.689 o
9 2 0 5206.360 5277.990 199.753 0.140 o
9 2 1 5132.310 5374.050 88.591 0.207 o
9 2 2 3537.080 3744.500 59.770 0.430 o
9 2 3 3530.020 3868.870 48.470 0.438 o
9 2 4 2493.410 2467.000 53.903 0.827 o
9 2 5 1319.270 1372.820 20.917 2.970 o
9 2 6 1366.360 1360.510 51.194 1.986 o
9 2 7 172.926 175.057 16.602 35.227 o
9 2 8 637.283 630.183 28.041 7.529 o
9 2 9 159.546 163.508 7.028 87.856 o
9 2 10 219.565 211.015 27.526 15.110 o
9 2 11 50.812 51.913 4.233 342.445 o
9 3 0 216.465 223.844 13.654 38.636 o
9 3 1 196.042 204.037 7.982 64.937 o
9 3 2 444.613 415.255 29.859 9.737 o
9 3 3 724.791 788.053 21.221 7.402 o
9 3 4 359.805 358.087 16.616 20.810 o
9 3 5 489.174 477.948 14.266 16.060 o
9 3 6 402.653 481.693 36.870 7.409 o
9 3 7 323.851 392.953 19.566 18.522 o
9 3 8 281.392 292.082 9.585 38.651 o
9 3 9 226.694 218.570 6.646 61.491 o
9 3 10 143.847 152.890 7.323 93.616 o
9 3 11 13.763 16.920 2.767 1065.950 o
9 4 0 4061.130 3895.820 99.746 0.307 o
9 4 1 19.949 27.694 3.743 616.964 o
9 4 2 4196.080 4258.560 68.128 0.318 o
9 4 3 40.588 42.403 4.701 353.122 o
9 4 4 2646.400 2892.960 183.396 0.279 o
9 4 5 199.648 185.205 8.703 62.798 o
9 4 6 1193.440 1399.540 38.368 2.642 o
9 4 7 492.503 538.542 14.704 14.899 o
9 4 8 568.446 609.243 28.216 8.170 o
9 4 9 258.200 247.732 13.955 33.406 o
9 4 10 330.936 316.644 9.349 32.886 o
9 4 11 114.895 114.560 5.167 149.084 o
9 5 0 25.680 30.793 4.698 425.834 o
9 5 1 47.810 45.309 5.174 295.685 o
9 5 2 206.546 210.820 16.698 31.795 o
9 5 3 175.489 201.084 10.121 59.073 o
9 5 4 555.832 578.942 15.989 12.441 o
9 5 5 129.284 136.162 14.567 47.842 o
9 5 6 529.200 513.422 49.195 4.419 o
9 5 7 57.538 56.013 4.864 280.371 o
9 5 8 278.105 291.051 8.743 40.822 o
9 5 9 69.306 70.511 4.860 242.784 o
9 5 10 162.998 154.180 6.344 93.687 o
9 6 0 615.535 635.250 20.669 9.562 o
9 6 1 1070.850 981.332 38.475 3.380 o
9 6 2 444.423 482.120 15.290 16.771 o
9 6 3 987.949 1076.840 195.028 0.347 o
9 6 4 171.491 208.248 14.995 39.084 o
9 6 5 1369.060 1472.170 31.949 2.454 o
9 6 6 124.633 130.025 8.633 92.490 o
9 6 7 1187.800 1213.960 73.472 1.586 o
9 6 8 44.755 49.858 5.662 267.601 o
9 6 9 776.479 807.904 17.065 7.439 o
9 6 10 8.622 8.199 2.966 1187.800 o
9 7 0 27.497 28.125 5.384 350.998 o
9 7 1 69.806 73.876 6.572 179.418 o
9 7 2 95.724 103.371 7.648 124.660 o
9 7 3 19.426 23.252 4.282 534.564 o
9 7 4 181.281 171.690 11.041 56.068 o
9 7 5 135.126 130.504 9.781 78.311 o
9 7 6 114.770 124.783 9.964 82.966 o
9 7 7 158.092 124.871 14.141 47.462 o
9 7 8 77.461 70.679 6.147 185.901 o
9 7 9 218.650 233.848 11.435 44.688 o
9 8 0 21.644 22.685 4.140 547.587 o
9 8 1 420.582 409.309 14.184 19.617 o
9 8 2 124.818 118.516 9.540 85.113 o
9 8 3 370.534 332.840 13.215 24.575 o
9 8 4 198.256 188.909 9.902 57.038 o
9 8 5 583.930 617.424 19.201 10.554 o
9 8 6 414.967 307.846 24.372 13.635 o
9 8 7 555.919 506.955 23.387 10.371 o
9 8 8 301.767 289.036 13.161 30.244 o
9 9 0 76.114 75.220 6.692 169.366 o
9 9 1 26.613 25.981 4.401 470.661 o
9 9 2 25.343 21.081 4.309 503.005 o
9 9 3 29.125 30.200 9.602 135.325 o
9 9 4 57.946 69.137 9.621 115.616 o
9 9 5 31.940 28.046 4.564 422.183 o
9 9 6 60.445 64.702 6.223 206.572 o
9 9 7 30.550 28.251 7.333 213.874 o
9 10 0 264.731 262.158 11.590 37.594 o
9 10 1 0.803 1.353 3.030 1480.730 o
9 10 2 319.926 316.740 17.475 22.240 o
9 10 3 9.412 7.875 3.481 918.842 o
9 10 4 366.958 356.293 17.608 19.599 o
9 10 5 8.980 6.494 3.278 1029.590 o
9 11 0 33.317 33.617 4.904 371.545 o
9 11 1 84.877 87.555 8.915 112.958 o
9 11 2 5.099 6.520 6.191 349.863 o
10 0 0 1167.570 1192.790 25.478 3.497 o
10 0 1 34.524 31.496 3.252 574.826 o
10 0 2 1121.330 1061.800 22.926 4.009 o
10 0 3 242.398 226.310 8.124 52.500 o
10 0 4 985.024 912.356 19.341 5.237 o
10 0 5 599.131 601.864 16.606 11.213 o
10 0 6 791.407 808.109 24.473 6.292 o
10 0 7 333.416 336.427 14.292 25.172 o
10 0 8 578.665 575.324 16.648 11.807 o
10 0 9 80.118 88.661 4.853 210.670 o
10 0 10 321.964 313.884 17.527 22.152 o
10 1 0 890.465 921.538 39.238 3.920 o
10 1 1 3598.330 3277.610 178.565 0.238 o
10 1 2 637.673 695.765 29.897 6.880 o
10 1 3 1966.730 2103.520 166.307 0.380 o
10 1 4 426.774 469.009 17.171 16.301 o
10 1 5 780.040 791.905 62.036 2.592 o
10 1 6 378.956 384.720 21.104 15.865 o
10 1 7 311.426 311.694 21.478 18.138 o
10 1 8 135.501 141.212 6.258 110.924 o
10 1 9 61.749 66.227 4.390 283.965 o
10 1 10 41.873 39.209 3.533 466.797 o
10 2 0 27.579 35.075 4.150 477.565 o
10 2 1 943.627 896.237 76.867 1.745 o
10 2 2 165.052 171.575 9.662 66.788 o
10 2 3 791.918 807.272 17.516 7.235 o
10 2 4 378.718 336.904 29.704 10.895 o
10 2 5 1057.130 1049.600 35.771 3.493 o
10 2 6 380.620 345.936 12.520 24.435 o
10 2 7 641.733 646.178 20.166 9.283 o
10 2 8 294.711 260.511 20.106 20.904 o
10 2 9 216.469 230.695 7.123 60.710 o
10 2 10 182.460 172.401 6.300 82.738 o
10 3 0 1915.460 1906.700 115.428 0.645 o
10 3 1 290.641 342.615 20.401 19.413 o
10 3 2 1991.490 1814.680 60.877 1.136 o
10 3 3 77.499 87.658 8.620 121.322 o
10 3 4 1922.870 1817.520 176.834 0.356 o
10 3 5 6.611 13.668 3.244 1023.190 o
10 3 6 827.412 890.627 23.145 5.930 o
10 3 7 10.874 9.877 2.822 1191.740 o
10 3 8 304.937 348.382 14.615 25.957 o
10 3 9 25.193 22.189 3.133 726.821 o
10 4 0 365.322 354.382 26.706 12.598 o
10 4 1 496.217 477.542 39.299 6.324 o
10 4 3 920.830 1050.850 48.028 3.039 o
10 4 4 295.520 289.081 12.954 31.052 o
10 4 5 759.176 703.438 41.639 4.449 o
10 4 6 186.835 172.695 8.287 69.534 o
10 4 7 499.503 473.649 62.197 3.095 o
10 4 8 204.053 213.655 8.332 60.449 o
10 4 9 244.183 239.393 8.286 50.560 o
10 5 0 848.684 855.512 20.337 6.223 o
10 5 1 158.310 142.341 10.261 67.679 o
10 5 2 905.932 941.388 23.051 5.299 o
10 5 3 286.573 277.401 14.315 29.649 o
10 5 4 449.871 495.932 18.515 14.552 o
10 5 5 416.939 445.748 25.557 11.833 o
10 5 6 251.068 269.766 9.747 43.237 o
10 5 7 486.795 511.200 28.617 9.298 o
10 5 8 194.925 214.590 9.426 57.409 o
10 5 9 366.037 428.712 36.130 8.009 o
10 6 0 658.292 644.338 18.443 9.495 o
10 6 1 1.672 10.880 3.828 863.260 o
10 6 2 617.597 596.639 20.596 9.811 o
10 6 3 5.913 9.597 3.656 884.970 o
10 6 4 503.576 496.490 18.465 13.373 o
10 6 6 290.169 300.020 12.113 32.552 o
10 6 7 147.621 128.183 7.635 94.148 o
10 6 8 135.437 133.851 12.410 58.847 o
10 7 0 0.105 0.855 2.953 1595.490 o
10 7 1 238.777 247.977 12.944 37.430 o
10 7 2 43.507 46.932 5.520 281.270 o
10 7 3 385.370 525.144 31.422 9.171 o
10 7 4 172.450 190.153 9.919 61.771 o
10 7 5 526.422 511.509 18.597 12.694 o
10 7 6 254.717 276.798 13.646 33.233 o
10 7 7 334.247 327.787 18.389 20.439 o
10 8 0 240.507 252.141 17.178 27.770 o
10 8 1 190.514 180.757 9.794 59.779 o
10 8 2 191.297 203.258 10.367 54.906 o
10 8 3 61.065 54.818 11.506 88.044 o
10 8 4 183.871 174.290 11.222 54.569 o
10 8 5 20.091 16.674 4.670 484.471 o
10 9 0 147.811 135.975 8.591 83.983 o
10 9 1 23.429 21.678 4.892 428.354 o
10 9 2 196.795 203.082 13.152 43.177 o
10 9 3 165.624 138.931 8.972 75.268 o
11 0 1 12.127 17.384 4.638 528.140 o
11 0 2 41.586 39.147 4.954 334.505 o
11 0 3 166.175 153.881 11.268 58.925 o
11 0 4 26.323 30.755 3.829 544.567 o
11 0 5 138.181 150.023 12.238 58.224 o
11 0 6 1.240 -0.172 2.831 1699.120 o
11 0 7 11.802 14.070 2.673 1194.180 o
11 0 8 20.709 18.290 2.712 936.344 o
11 1 0 212.567 235.001 17.598 28.798 o
11 1 1 445.823 417.336 17.412 16.334 o
11 1 2 382.778 385.367 13.001 22.816 o
11 1 3 367.637 384.266 15.730 20.867 o
11 1 4 583.765 546.473 15.905 12.235 o
11 1 5 275.760 272.033 9.632 40.339 o
11 1 6 865.210 816.942 50.639 3.198 o
11 1 7 224.443 223.332 8.396 55.134 o
11 1 8 734.853 674.745 27.143 6.770 o
11 2 0 15.433 17.367 3.956 648.590 o
11 2 1 134.397 100.115 13.086 57.297 o
11 2 2 61.678 53.892 5.930 223.742 o
11 2 3 51.526 53.312 4.796 301.333 o
11 2 4 78.466 79.614 5.752 191.558 o
11 2 5 57.299 67.452 6.253 207.629 o
11 2 6 55.228 58.595 4.742 289.416 o
11 2 7 98.662 98.111 6.494 145.442 o
11 2 8 43.133 41.416 3.512 456.518 o
11 3 0 37.466 40.222 4.804 357.325 o
11 3 1 989.137 766.127 26.495 5.002 o
11 3 2 76.528 66.203 6.218 187.209 o
11 3 3 1138.050 1192.260 54.920 2.241 o
11 3 4 15.440 20.583 3.542 739.050 o
11 3 5 822.013 746.651 26.035 6.079 o
11 3 6 147.126 119.163 7.622 96.298 o
11 3 7 498.466 445.221 15.915 15.388 o
11 4 0 104.381 94.999 9.041 101.692 o
11 4 1 1.275 4.877 3.210 1262.880 o
11 4 2 160.006 158.944 15.068 41.862 o
11 4 3 26.427 32.779 4.826 404.359 o
11 4 4 200.578 23.312 12.078 59.329 o
11 4 5 22.485 23.796 3.944 573.831 o
11 4 6 199.919 198.040 8.343 63.024 o
11 4 7 112.428 100.137 6.860 128.626 o
11 5 0 1304.120 1378.720 45.546 2.226 o
11 5 1 284.539 261.433 22.134 18.797 o
11 5 3 295.539 281.783 13.277 30.741 o
11 5 4 355.341 242.253 24.383 15.310 o
11 5 5 415.965 426.834 23.364 13.187 o
11 5 6 136.354 137.848 12.060 60.554 o
11 6 0 24.672 31.808 4.795 416.238 o
11 6 1 114.430 111.214 7.987 108.063 o
11 6 2 98.444 100.695 7.690 123.186 o
11 6 3 141.515 128.325 12.641 56.985 o
11 6 4 246.183 228.860 10.938 43.142 o
11 6 5 101.651 91.457 7.052 135.143 o
11 7 0 1194.830 1255.130 24.781 3.349 o
11 7 1 38.187 28.784 4.724 380.859 o
11 7 2 982.700 1020.590 26.316 4.451 o
11 7 3 9.928 7.422 3.406 946.097 o
12 0 2 489.091 513.795 31.407 8.344 o
12 0 3 126.596 150.250 10.784 69.977 o
12 0 4 570.049 498.977 27.751 8.809 o
12 0 5 113.515 112.209 7.384 116.547 o
12 1 1 137.910 106.828 15.716 43.270 o
12 1 2 9.712 14.446 4.704 536.438 o
12 1 3 127.228 109.021 8.397 98.042 o
12 1 4 1.493 4.712 2.841 1572.190 o
12 1 5 46.169 43.224 4.775 329.865 o
12 2 0 221.532 187.867 15.106 35.626 o
12 2 1 203.379 163.141 16.488 33.986 o
12 2 2 149.206 128.612 8.602 84.633 o
12 2 3 263.993 229.471 10.989 40.880 o
12 2 4 190.288 148.133 11.081 56.332 o
12 2 5 221.931 214.673 10.570 48.448 o
12 3 0 66.340 54.794 6.067 211.341 o
12 3 1 60.561 47.992 6.490 206.269 o
12 3 2 61.508 50.526 7.809 160.070 o
12 3 3 79.746 74.047 7.249 152.620 o
12 3 4 53.939 60.433 5.960 228.880 o
12 4 0 104.268 107.614 10.393 83.842 o
12 4 1 686.800 667.279 18.630 8.937 o
12 4 2 47.661 44.667 5.515 275.611 o
12 4 3 562.059 489.525 16.721 12.964 o
12 5 0 48.895 42.922 5.287 288.762 o
12 5 1 19.822 20.744 9.123 154.919 o
;
_iucr_refine_instructions_details
;
TITL d1-pph3aui-1_11880_fin_a.res in P2(1)2(1)2(1)
REM Old TITL D1-PPh3AuI-1_11880_fin in P2(1)2(1)2(1)
REM SHELXT solution in P2(1)2(1)2(1): R1 0.068, Rweak 0.030, Alpha 0.005
REM <I/s> 1.793 for 18 systematic absences, Orientation as input
REM Flack x = 0.145 ( 0.007 ) from 1303 Parsons' quotients
REM Formula found by SHELXT: P Au Br C18
CELL 1.0437 10.068858 12.467239 13.430391 90 90 90
ZERR 7 0.0003 0.0006 0.0004 0 0 0
LATT -1
SYMM 0.5-X,-Y,0.5+Z
SYMM -X,0.5+Y,0.5-Z
SYMM 0.5+X,0.5-Y,-Z
SFAC P Au Br C H
DISP Au -13.5312 3.9168 24997.7139
DISP Br -1.784 0.6368 3690.0825
DISP C 0.0081 0.0038 29.7382
DISP H 0 0 0.6373
DISP P 0.1846 0.2049 1278.9936
UNIT 7 7 7 126 60

L.S. 10
PLAN  5
CONF
FMAP 2
list 4
MORE -1
BOND $H
ACTA
EXTI 0.001489
WGHT 0.046409 0.34442
FVAR 2.954648
REM <olex2.extras>
REM <dispersion
REM  <Au01 "-13.8260 4.0794">
REM >
REM <HklSrc "%.\\D1-PPh3AuI-1_11880.hkl">
REM </olex2.extras>

Au01  2     0.335252  0.428361  0.761159  11.00000  0.04584  0.04982 =
 0.05610 -0.00339  0.00026  0.00427
Br02  3     0.114022  0.485130  0.800923  11.00000  0.05270  0.07340 =
 0.07084 -0.00984  0.00180  0.01347
P003  1     0.540784  0.374473  0.723293  11.00000  0.04522  0.04632 =
 0.05370  0.00147  0.00052  0.00308
C004  4     0.543651  0.293102  0.612116  11.00000  0.05106  0.04276 =
 0.05434  0.00115  0.00164  0.00060
C005  4     0.541856  0.227878  0.877376  11.00000  0.06276  0.05661 =
 0.06850  0.00917 -0.00960 -0.00531
AFIX 43
H005  5     0.449890  0.228475  0.870980  11.00000 -1.20000
AFIX 0
C006  4     0.618804  0.293109  0.817787  11.00000  0.05462  0.04775 =
 0.05281  0.00222 -0.00077  0.00574
C007  4     0.613752  0.198487  0.606711  11.00000  0.06736  0.06249 =
 0.06205  0.00257  0.00057  0.01164
AFIX 43
H007  5     0.664777  0.176261  0.660618  11.00000 -1.20000
AFIX 0
C008  4     0.654042  0.484901  0.704103  11.00000  0.04912  0.04494 =
 0.06778  0.00546 -0.00021  0.00352
C009  4     0.725272  0.501307  0.618092  11.00000  0.05889  0.05715 =
 0.08200 -0.00131  0.01376 -0.00364
AFIX 43
H009  5     0.717023  0.453587  0.565229  11.00000 -1.20000
AFIX 0
C00A  4     0.755784  0.294302  0.830701  11.00000  0.06206  0.07659 =
 0.06279  0.01002 -0.00283  0.01155
AFIX 43
H00A  5     0.808663  0.339768  0.792727  11.00000 -1.20000
AFIX 0
C00B  4     0.602163  0.161105  0.947155  11.00000  0.10096  0.05669 =
 0.06569  0.01457 -0.00509 -0.00780
AFIX 43
H00B  5     0.550231  0.115735  0.985955  11.00000 -1.20000
AFIX 0
C00C  4     0.670115  0.558021  0.782917  11.00000  0.06179  0.06130 =
 0.07447 -0.00526  0.00136  0.00191
AFIX 43
H00C  5     0.621619  0.548800  0.841225  11.00000 -1.20000
AFIX 0
C00D  4     0.469248  0.325149  0.530130  11.00000  0.08291  0.06379 =
 0.06834 -0.00314 -0.01571  0.01969
AFIX 43
H00D  5     0.421323  0.388859  0.532663  11.00000 -1.20000
AFIX 0
C00E  4     0.534160  0.168273  0.441007  11.00000  0.07528  0.07567 =
 0.06489 -0.01495  0.00528 -0.00440
AFIX 43
H00E  5     0.530176  0.125681  0.384237  11.00000 -1.20000
AFIX 0
C00F  4     0.756106  0.642517  0.774977  11.00000  0.06354  0.06235 =
 0.10192 -0.01511 -0.01240 -0.00195
AFIX 43
H00F  5     0.767640  0.689372  0.828159  11.00000 -1.20000
AFIX 0
C00G  4     0.812647  0.226833  0.900936  11.00000  0.06730  0.10739 =
 0.07083  0.00367 -0.00873  0.02854
AFIX 43
H00G  5     0.904451  0.226040  0.908515  11.00000 -1.20000
AFIX 0
C00H  4     0.465963  0.263417  0.445363  11.00000  0.08540  0.09320 =
 0.06238 -0.00382 -0.01539  0.01464
AFIX 43
H00H  5     0.417146  0.286321  0.390559  11.00000 -1.20000
AFIX 0
C00I  4     0.810101  0.589684  0.610042  11.00000  0.06337  0.07168 =
 0.11306  0.01431  0.02103 -0.00613
AFIX 43
H00I  5     0.856313  0.601986  0.551184  11.00000 -1.20000
AFIX 0
C00J  4     0.824866  0.657658  0.688570  11.00000  0.06018  0.05673 =
 0.13477  0.00690  0.00269 -0.00184
AFIX 43
H00J  5     0.882843  0.715442  0.683236  11.00000 -1.20000
AFIX 0
C00K  4     0.608706  0.136677  0.522001  11.00000  0.09465  0.05956 =
 0.07933 -0.00740  0.00992  0.01842
AFIX 43
H00K  5     0.656171  0.072751  0.519293  11.00000 -1.20000
AFIX 0
C00L  4     0.736319  0.161643  0.959073  11.00000  0.10702  0.06483 =
 0.05914  0.00767 -0.01129  0.02330
AFIX 43
H00L  5     0.775809  0.117784  1.006622  11.00000 -1.20000
AFIX 0
HKLF 4

END
Q1 1 0.333333 0.433333 0.7 11 0.05 0.45
Q2 1 0.138889 0.511111 0.744444 11 0.05 0.41
Q3 1 0.333333 0.311111 0.755556 11 0.05 0.39
Q4 1 0.305556 0.377778 0.8 11 0.05 0.37
Q5 1 0.277778 0.366667 0.711111 11 0.05 0.33

  REM The information below was added by Olex2.
  REM
  REM R1 = 0.0237 for 3216 Fo > 4sig(Fo) and 0.0240 for all 3250 data
  REM 193 parameters refined using 0 restraints
  REM Highest difference peak 0.4458, deepest hole -0.5539
  REM Mean Shift 0.0005, Max Shift -0.0034.

  REM +++ Tabular Listing of Refinement Information +++
  REM R1_all = 0.0240
  REM R1_gt = 0.0237
  REM wR_ref = 0.0660
  REM GOOF = 1.0330
  REM Shift_max = -0.0034
  REM Shift_mean = 0.0005
  REM Reflections_all = 3250
  REM Reflections_gt = 3216
  REM Parameters = 193
  REM Hole = -0.5539
  REM Peak = 0.4458
  REM Flack = 0.013(5)

  
;
_olex2_submission_special_instructions  'No special instructions were received'
