data_sucrose
_audit_creation_date               2025-01-27
_audit_creation_method
;
Olex2 1.5-alpha
(compiled 2025.01.22 svn.rc7346086 for OlexSys, GUI svn.r7128)
;
_audit_contact_author_address      ?
_audit_contact_author_email        ?
_audit_contact_author_name         ''
_audit_contact_author_phone        ?
_publ_contact_author_id_orcid      ?
_publ_section_references
;
Bourhis, L.J., Dolomanov, O.V., Gildea, R.J., Howard, J.A.K., Puschmann, H.
 (2015). Acta Cryst. A71, 59-75.

Dolomanov, O.V., Bourhis, L.J., Gildea, R.J, Howard, J.A.K. & Puschmann, H.
 (2009), J. Appl. Cryst. 42, 339-341.

Meurer, F., Dolomanov, O.V., Hennig, C., Peyerimhoff, N., Kleemiss, F.,
Puschmann, H., Bodensteiner, M. (2022), IUCrJ, 9, 604-609.
;
_chemical_formula_moiety           'C12 H22 O11'
_chemical_formula_sum              'C12 H22 O11'
_chemical_formula_weight           342.302
_chemical_absolute_configuration   unk
loop_
  _atom_type_symbol
  _atom_type_scat_dispersion_real
  _atom_type_scat_dispersion_imag
  _atom_type_scat_Cromer_Mann_a1
  _atom_type_scat_Cromer_Mann_a2
  _atom_type_scat_Cromer_Mann_a3
  _atom_type_scat_Cromer_Mann_a4
  _atom_type_scat_Cromer_Mann_b1
  _atom_type_scat_Cromer_Mann_b2
  _atom_type_scat_Cromer_Mann_b3
  _atom_type_scat_Cromer_Mann_b4
  _atom_type_scat_Cromer_Mann_c
  _atom_type_scat_source
  _atom_type_scat_dispersion_source
 C 0.019(9) 0.004(4) 2.31000 1.02000 1.58860 0.86500 20.84390 10.20750 0.56870
 51.65120 0.21560 'International Tables Volume C Table 6.1.1.4 (pp. 500-502)'
 refined
 H 0.00000 0.00000 0.49300 0.32291 0.14019 0.04081 10.51090 26.12570 3.14236
 57.79970 0.00304 'International Tables Volume C Table 6.1.1.4 (pp. 500-502)'
 'Brennan, Cowan, Rev. Sci. Instrum., 1992, 63, 850'
 O 0.01085 0.00610 3.04850 2.28680 1.54630 0.86700 13.27710 5.70110 0.32390
 32.90890 0.25080 'International Tables Volume C Table 6.1.1.4 (pp. 500-502)'
 'Brennan, Cowan, Rev. Sci. Instrum., 1992, 63, 850'

_space_group_crystal_system        'monoclinic'
_space_group_IT_number             4
_space_group_name_H-M_alt          'P 1 21 1'
_space_group_name_Hall             ' P 2yb'
loop_
  _space_group_symop_id
  _space_group_symop_operation_xyz
 1 x,y,z
 2 -x,y+1/2,-z

_symmetry_Int_Tables_number        4
_cell_length_a                     7.7727(9)
_cell_length_b                     8.7216(11)
_cell_length_c                     10.8637(11)
_cell_angle_alpha                  90
_cell_angle_beta                   102.983(11)
_cell_angle_gamma                  90
_cell_volume                       717.63(15)
_cell_formula_units_Z              2
_cell_measurement_temperature      120(2)
_exptl_absorpt_coefficient_mu      0.142
_exptl_crystal_density_diffrn      1.584
_exptl_crystal_F_000               364.337
_exptl_crystal_size_max            0.15
_exptl_crystal_size_mid            0.15
_exptl_crystal_size_min            0.1
_diffrn_reflns_av_R_equivalents    0.0339
_diffrn_reflns_av_unetI/netI       0.0306
_diffrn_reflns_Laue_measured_fraction_full  0.9971
_diffrn_reflns_Laue_measured_fraction_max  0.9975
_diffrn_reflns_limit_h_max         10
_diffrn_reflns_limit_h_min         -10
_diffrn_reflns_limit_k_max         9
_diffrn_reflns_limit_k_min         -11
_diffrn_reflns_limit_l_max         14
_diffrn_reflns_limit_l_min         -14
_diffrn_reflns_number              13618
_diffrn_reflns_point_group_measured_fraction_full  0.9228
_diffrn_reflns_point_group_measured_fraction_max  0.9134
_diffrn_reflns_theta_full          25.2417
_diffrn_reflns_theta_max           26.37
_diffrn_reflns_theta_min           2.69
_diffrn_ambient_temperature        120(2)
_diffrn_measured_fraction_theta_full  0.9971
_diffrn_measured_fraction_theta_max  0.9975
_diffrn_radiation_type             'Mo K\a'
_diffrn_radiation_wavelength       0.71073
_reflns_Friedel_coverage           0.817
_reflns_limit_h_max                9
_reflns_limit_h_min                -9
_reflns_limit_k_max                9
_reflns_limit_k_min                -10
_reflns_limit_l_max                13
_reflns_limit_l_min                -13
_reflns_number_gt                  2510
_reflns_number_total               2691
_reflns_threshold_expression       I>=2u(I)
_computing_molecular_graphics      'Olex2 1.5-alpha (Dolomanov et al., 2009)'
_computing_publication_material    'Olex2 1.5-alpha (Dolomanov et al., 2009)'
_computing_structure_refinement   
 'olex2.refine 1.5-alpha (Bourhis et al., 2015)'
_refine_diff_density_max           0.1785
_refine_diff_density_min           -0.1541
_refine_diff_density_rms           0.0331
_refine_ls_abs_structure_details  
 'Hooft, R.W.W., Straver, L.H., Spek, A.L. (2010). J. Appl. Cryst., 43, 665-668.'
_refine_ls_abs_structure_Flack     1.2(12)
_refine_ls_d_res_high              0.8002
_refine_ls_d_res_low               7.5740
_refine_ls_extinction_coef         0.022(2)
_refine_ls_extinction_expression   Fc^*^=kFc[1+0.001xFc^2^\l^3^/sin(2\q)]^-1/4^
_refine_ls_goodness_of_fit_ref     1.0570
_refine_ls_hydrogen_treatment      constr
_refine_ls_matrix_type             full
_refine_ls_number_constraints      43
_refine_ls_number_parameters       219
_refine_ls_number_reflns           2691
_refine_ls_number_restraints       1
_refine_ls_R_factor_all            0.0308
_refine_ls_R_factor_gt             0.0280
_refine_ls_restrained_S_all        1.0570
_refine_ls_shift/su_max            0.0004
_refine_ls_shift/su_mean           0.0001
_refine_ls_structure_factor_coef   Fsqd
_refine_ls_weighting_details      
 'w=1/[\s^2^(Fo^2^)+(0.0271P)^2^+0.1427P] where P=(Fo^2^+2Fc^2^)/3'
_refine_ls_weighting_scheme        calc
_refine_ls_wR_factor_gt            0.0633
_refine_ls_wR_factor_ref           0.0648
_olex2_refinement_description
;
1. Fixed Uiso
 At 1.2 times of:
  All C(H) groups, All C(H,H) groups
 At 1.5 times of:
  All O(H) groups
2. Same DISP constrains
Same disp [C11,C22,C23,C24,C12,C15,C25,C14,C21,C13,C16,C26]
3.a Ternary CH refined with riding coordinates:
 C11(H11), C23(H23a), C24(H24a), C12(H12a), C15(H15), C25(H25), C14(H14a),
 C13(H13a)
3.b Secondary CH2 refined with riding coordinates:
 C21(H21a,H21b), C16(H16a,H16b), C26(H26a,H26b)
3.c Idealised tetrahedral OH refined as rotating group:
 O23(H23), O21(H21), O12(H12), O24(H24), O26(H26), O13(H13), O16(H16), O14(H14)
;
loop_
  _atom_site_label
  _atom_site_type_symbol
  _atom_site_fract_x
  _atom_site_fract_y
  _atom_site_fract_z
  _atom_site_U_iso_or_equiv
  _atom_site_adp_type
  _atom_site_occupancy
  _atom_site_refinement_flags_posn
 O10 O 0.36837(15) 0.53927(14) 0.37736(10) 0.0232(3) Uani 1.000000 .
 O1 O 0.39121(14) 0.59103(13) 0.17118(9) 0.0193(3) Uani 1.000000 .
 O20 O 0.31626(14) 0.84351(15) 0.21225(10) 0.0229(3) Uani 1.000000 .
 O23 O 0.20458(16) 0.62037(15) -0.07420(10) 0.0264(3) Uani 1.000000 .
 H23 H 0.182(3) 0.5411(4) -0.0370(7) 0.0396(4) Uiso 1.000000 GR
 O21 O 0.62074(16) 0.70248(16) 0.02979(11) 0.0298(3) Uani 1.000000 .
 H21 H 0.654(3) 0.6231(11) 0.0724(8) 0.0447(5) Uiso 1.000000 GR
 O12 O 0.74733(16) 0.50207(17) 0.22884(11) 0.0288(3) Uani 1.000000 .
 H12 H 0.8279(19) 0.561(2) 0.2660(8) 0.0432(5) Uiso 1.000000 GR
 O24 O -0.08894(15) 0.84045(17) -0.02185(11) 0.0307(3) Uani 1.000000 .
 H24 H -0.1837(4) 0.7980(17) -0.0158(15) 0.0460(5) Uiso 1.000000 GR
 O26 O 0.03942(17) 0.69982(17) 0.32664(13) 0.0358(3) Uani 1.000000 .
 H26 H 0.1420(3) 0.6633(8) 0.345(2) 0.0537(5) Uiso 1.000000 GR
 O13 O 0.70285(19) 0.19012(18) 0.30890(13) 0.0387(4) Uani 1.000000 .
 H13 H 0.735(2) 0.172(2) 0.2415(5) 0.0581(5) Uiso 1.000000 GR
 O16 O 0.28618(19) 0.39227(18) 0.58135(11) 0.0365(4) Uani 1.000000 .
 H16 H 0.277(3) 0.4844(7) 0.6015(9) 0.0548(5) Uiso 1.000000 GR
 O14 O 0.3556(2) 0.12431(17) 0.34846(16) 0.0449(4) Uani 1.000000 .
 H14 H 0.4302(5) 0.0558(5) 0.345(2) 0.0673(6) Uiso 1.000000 GR
 C11 C 0.4857(2) 0.5805(2) 0.30015(14) 0.0203(4) Uani 1.000000 .
 H11 H 0.5380(2) 0.6830(2) 0.32780(14) 0.0244(5) Uiso 1.000000 R
 C22 C 0.3696(2) 0.7457(2) 0.12423(14) 0.0191(4) Uani 1.000000 .
 C23 C 0.2143(2) 0.7474(2) 0.00704(14) 0.0203(4) Uani 1.000000 .
 H23a H 0.2268(2) 0.8414(2) -0.04299(14) 0.0244(5) Uiso 1.000000 R
 C24 C 0.0554(2) 0.7711(2) 0.06530(15) 0.0221(4) Uani 1.000000 .
 H24a H 0.0179(2) 0.6712(2) 0.09621(15) 0.0265(5) Uiso 1.000000 R
 C12 C 0.6355(2) 0.4630(2) 0.31276(15) 0.0229(5) Uani 1.000000 .
 H12a H 0.7076(2) 0.4663(2) 0.40141(15) 0.0275(6) Uiso 1.000000 R
 C15 C 0.2955(2) 0.3858(2) 0.35913(15) 0.0246(5) Uani 1.000000 .
 H15 H 0.2179(2) 0.3775(2) 0.27251(15) 0.0295(6) Uiso 1.000000 R
 C25 C 0.1279(2) 0.8767(2) 0.17605(15) 0.0227(5) Uani 1.000000 .
 H25 H 0.1114(2) 0.9854(2) 0.14664(15) 0.0272(6) Uiso 1.000000 R
 C14 C 0.4423(2) 0.2673(2) 0.37389(16) 0.0262(5) Uani 1.000000 .
 H14a H 0.5124(2) 0.2683(2) 0.46316(16) 0.0314(6) Uiso 1.000000 R
 C21 C 0.5435(2) 0.8073(2) 0.10310(16) 0.0254(5) Uani 1.000000 .
 H21a H 0.6261(2) 0.8243(2) 0.18572(16) 0.0304(6) Uiso 1.000000 R
 H21b H 0.5231(2) 0.9071(2) 0.05881(16) 0.0304(6) Uiso 1.000000 R
 C13 C 0.5644(2) 0.3022(2) 0.28542(15) 0.0252(5) Uani 1.000000 .
 H13a H 0.4970(2) 0.2949(2) 0.19565(15) 0.0302(6) Uiso 1.000000 R
 C16 C 0.1839(2) 0.3670(2) 0.45691(15) 0.0314(5) Uani 1.000000 .
 H16a H 0.1338(2) 0.2622(2) 0.45104(15) 0.0377(6) Uiso 1.000000 R
 H16b H 0.0846(2) 0.4407(2) 0.43881(15) 0.0377(6) Uiso 1.000000 R
 C26 C 0.0468(2) 0.8563(2) 0.28911(16) 0.0311(5) Uani 1.000000 .
 H26a H -0.0744(2) 0.8988(2) 0.26875(16) 0.0373(7) Uiso 1.000000 R
 H26b H 0.1164(2) 0.9156(2) 0.36092(16) 0.0373(7) Uiso 1.000000 R

loop_
  _atom_site_dispersion_label
  _atom_site_dispersion_real
  _atom_site_dispersion_imag
 C11 0.019(9) 0.004(4)
 C22 0.019(9) 0.004(4)
 C23 0.019(9) 0.004(4)
 C24 0.019(9) 0.004(4)
 C12 0.019(9) 0.004(4)
 C15 0.019(9) 0.004(4)
 C25 0.019(9) 0.004(4)
 C14 0.019(9) 0.004(4)
 C21 0.019(9) 0.004(4)
 C13 0.019(9) 0.004(4)
 C16 0.019(9) 0.004(4)
 C26 0.019(9) 0.004(4)

loop_
  _atom_site_aniso_label
  _atom_site_aniso_U_11
  _atom_site_aniso_U_22
  _atom_site_aniso_U_33
  _atom_site_aniso_U_12
  _atom_site_aniso_U_13
  _atom_site_aniso_U_23
 O10 0.0273(6) 0.0212(8) 0.0233(6) -0.0006(5) 0.0103(5) -0.0007(5)
 O1 0.0222(6) 0.0167(7) 0.0183(5) -0.0014(5) 0.0031(4) 0.0009(5)
 O20 0.0179(6) 0.0236(7) 0.0264(6) 0.0022(5) 0.0032(4) -0.0073(5)
 O23 0.0307(7) 0.0252(8) 0.0230(6) -0.0033(6) 0.0055(5) -0.0047(6)
 O21 0.0253(6) 0.0354(9) 0.0321(6) 0.0025(6) 0.0138(5) 0.0042(6)
 O12 0.0233(6) 0.0328(9) 0.0320(6) 0.0007(6) 0.0097(5) 0.0012(6)
 O24 0.0172(6) 0.0391(9) 0.0336(7) 0.0027(6) 0.0014(5) 0.0079(6)
 O26 0.0290(7) 0.0431(9) 0.0379(7) 0.0015(7) 0.0131(6) 0.0083(7)
 O13 0.0543(9) 0.0306(9) 0.0371(7) 0.0193(7) 0.0228(7) 0.0098(7)
 O16 0.0479(8) 0.0376(10) 0.0273(6) 0.0072(7) 0.0154(6) 0.0048(6)
 O14 0.0497(9) 0.0222(9) 0.0686(10) -0.0085(8) 0.0257(8) -0.0065(8)
 C11 0.0212(8) 0.0216(11) 0.0181(7) -0.0004(7) 0.0044(6) -0.0001(7)
 C22 0.0194(8) 0.0166(10) 0.0216(8) 0.0008(7) 0.0056(6) 0.0001(7)
 C23 0.0219(8) 0.0189(10) 0.0202(8) -0.0017(7) 0.0048(6) 0.0004(7)
 C24 0.0184(8) 0.0240(11) 0.0234(8) 0.0017(7) 0.0037(6) 0.0046(7)
 C12 0.0224(9) 0.0257(12) 0.0205(8) 0.0008(7) 0.0045(6) 0.0014(7)
 C15 0.0273(9) 0.0233(11) 0.0233(8) -0.0045(8) 0.0059(7) 0.0008(7)
 C25 0.0189(9) 0.0200(11) 0.0296(9) 0.0030(7) 0.0063(6) -0.0004(7)
 C14 0.0330(10) 0.0191(11) 0.0270(9) -0.0016(8) 0.0081(7) -0.0012(7)
 C21 0.0181(8) 0.0269(12) 0.0315(9) -0.0041(8) 0.0062(6) 0.0017(8)
 C13 0.0331(10) 0.0203(11) 0.0226(8) 0.0059(8) 0.0074(7) 0.0014(7)
 C16 0.0287(10) 0.0350(14) 0.0324(9) -0.0003(9) 0.0109(8) 0.0074(9)
 C26 0.0291(10) 0.0345(14) 0.0325(9) 0.0021(9) 0.0128(7) -0.0040(9)

loop_
  _geom_bond_atom_site_label_1
  _geom_bond_atom_site_label_2
  _geom_bond_distance
  _geom_bond_site_symmetry_2
  _geom_bond_publ_flag
 O10 C11 1.4172(19) . ?
 O10 C15 1.450(2) . ?
 O1 C11 1.4313(17) . ?
 O1 C22 1.439(2) . ?
 O20 C22 1.4114(19) . ?
 O20 C25 1.4568(19) . ?
 O23 H23 0.8400 . ?
 O23 C23 1.408(2) . ?
 O21 H21 0.8400 . ?
 O21 C21 1.430(2) . ?
 O12 H12 0.8400 . ?
 O12 C12 1.435(2) . ?
 O24 H24 0.8400 . ?
 O24 C24 1.4298(19) . ?
 O26 H26 0.8400 . ?
 O26 C26 1.429(3) . ?
 O13 H13 0.8400 . ?
 O13 C13 1.434(2) . ?
 O16 H16 0.8400 . ?
 O16 C16 1.423(2) . ?
 O14 H14 0.8400 . ?
 O14 C14 1.415(2) . ?
 C11 H11 1.0000 . ?
 C11 C12 1.534(2) . ?
 C22 C23 1.545(2) . ?
 C22 C21 1.519(2) . ?
 C23 H23a 1.0000 . ?
 C23 C24 1.523(2) . ?
 C24 H24a 1.0000 . ?
 C24 C25 1.520(2) . ?
 C12 H12a 1.0000 . ?
 C12 C13 1.512(3) . ?
 C15 H15 1.0000 . ?
 C15 C14 1.521(3) . ?
 C15 C16 1.524(2) . ?
 C25 H25 1.0000 . ?
 C25 C26 1.512(2) . ?
 C14 H14a 1.0000 . ?
 C14 C13 1.525(2) . ?
 C21 H21a 0.9900 . ?
 C21 H21b 0.9900 . ?
 C13 H13a 1.0000 . ?
 C16 H16a 0.9900 . ?
 C16 H16b 0.9900 . ?
 C26 H26a 0.9900 . ?
 C26 H26b 0.9900 . ?

loop_
  _geom_angle_atom_site_label_1
  _geom_angle_atom_site_label_2
  _geom_angle_atom_site_label_3
  _geom_angle
  _geom_angle_site_symmetry_1
  _geom_angle_site_symmetry_3
  _geom_angle_publ_flag
 C15 O10 C11 115.92(13) . . ?
 C22 O1 C11 113.60(12) . . ?
 C25 O20 C22 111.56(12) . . ?
 C23 O23 H23 109.5 . . ?
 C21 O21 H21 109.5 . . ?
 C12 O12 H12 109.5 . . ?
 C24 O24 H24 109.5 . . ?
 C26 O26 H26 109.5 . . ?
 C13 O13 H13 109.5 . . ?
 C16 O16 H16 109.5 . . ?
 C14 O14 H14 109.5 . . ?
 O1 C11 O10 109.80(12) . . ?
 H11 C11 O10 108.75(9) . . ?
 H11 C11 O1 108.75(9) . . ?
 C12 C11 O10 110.73(13) . . ?
 C12 C11 O1 110.02(13) . . ?
 C12 C11 H11 108.75(9) . . ?
 O20 C22 O1 110.80(12) . . ?
 C23 C22 O1 107.97(13) . . ?
 C23 C22 O20 104.97(12) . . ?
 C21 C22 O1 110.38(13) . . ?
 C21 C22 O20 107.19(13) . . ?
 C21 C22 C23 115.42(13) . . ?
 C22 C23 O23 115.51(14) . . ?
 H23a C23 O23 107.59(8) . . ?
 H23a C23 C22 107.59(9) . . ?
 C24 C23 O23 115.64(14) . . ?
 C24 C23 C22 102.43(12) . . ?
 C24 C23 H23a 107.59(10) . . ?
 C23 C24 O24 111.78(13) . . ?
 H24a C24 O24 110.27(9) . . ?
 H24a C24 C23 110.27(10) . . ?
 C25 C24 O24 111.35(15) . . ?
 C25 C24 C23 102.70(13) . . ?
 C25 C24 H24a 110.27(10) . . ?
 C11 C12 O12 109.91(13) . . ?
 H12a C12 O12 108.46(8) . . ?
 H12a C12 C11 108.46(8) . . ?
 C13 C12 O12 110.02(14) . . ?
 C13 C12 C11 111.46(13) . . ?
 C13 C12 H12a 108.46(9) . . ?
 H15 C15 O10 109.28(8) . . ?
 C14 C15 O10 110.63(13) . . ?
 C14 C15 H15 109.28(9) . . ?
 C16 C15 O10 105.69(14) . . ?
 C16 C15 H15 109.28(9) . . ?
 C16 C15 C14 112.61(15) . . ?
 C24 C25 O20 105.36(13) . . ?
 H25 C25 O20 108.90(9) . . ?
 H25 C25 C24 108.90(10) . . ?
 C26 C25 O20 109.56(13) . . ?
 C26 C25 C24 115.05(15) . . ?
 C26 C25 H25 108.90(10) . . ?
 C15 C14 O14 105.38(14) . . ?
 H14a C14 O14 109.20(10) . . ?
 H14a C14 C15 109.20(9) . . ?
 C13 C14 O14 112.90(15) . . ?
 C13 C14 C15 110.86(15) . . ?
 C13 C14 H14a 109.20(9) . . ?
 C22 C21 O21 110.92(15) . . ?
 H21a C21 O21 109.46(8) . . ?
 H21a C21 C22 109.46(8) . . ?
 H21b C21 O21 109.46(9) . . ?
 H21b C21 C22 109.46(9) . . ?
 H21b C21 H21a 108.0 . . ?
 C12 C13 O13 111.77(15) . . ?
 C14 C13 O13 107.47(14) . . ?
 C14 C13 C12 108.23(14) . . ?
 H13a C13 O13 109.77(9) . . ?
 H13a C13 C12 109.77(9) . . ?
 H13a C13 C14 109.77(9) . . ?
 C15 C16 O16 111.18(14) . . ?
 H16a C16 O16 109.40(11) . . ?
 H16a C16 C15 109.40(11) . . ?
 H16b C16 O16 109.40(10) . . ?
 H16b C16 C15 109.40(10) . . ?
 H16b C16 H16a 108.0 . . ?
 C25 C26 O26 113.25(15) . . ?
 H26a C26 O26 108.93(9) . . ?
 H26a C26 C25 108.93(9) . . ?
 H26b C26 O26 108.93(9) . . ?
 H26b C26 C25 108.93(10) . . ?
 H26b C26 H26a 107.7 . . ?

loop_
  _geom_torsion_atom_site_label_1
  _geom_torsion_atom_site_label_2
  _geom_torsion_atom_site_label_3
  _geom_torsion_atom_site_label_4
  _geom_torsion
  _geom_torsion_site_symmetry_1
  _geom_torsion_site_symmetry_2
  _geom_torsion_site_symmetry_3
  _geom_torsion_site_symmetry_4
  _geom_torsion_publ_flag
 O10 C11 O1 C22 108.46(14) . . . . ?
 O10 C11 C12 O12 176.86(13) . . . . ?
 O10 C11 C12 C13 54.62(14) . . . . ?
 O10 C15 C14 O14 -177.37(14) . . . . ?
 O10 C15 C14 C13 -54.91(14) . . . . ?
 O10 C15 C16 O16 -57.04(15) . . . . ?
 O1 C11 C12 O12 55.31(14) . . . . ?
 O1 C11 C12 C13 -66.93(14) . . . . ?
 O1 C22 O20 C25 -102.05(13) . . . . ?
 O1 C22 C23 O23 -39.43(13) . . . . ?
 O1 C22 C23 C24 87.16(14) . . . . ?
 O1 C22 C21 O21 50.54(13) . . . . ?
 O20 C22 C23 O23 -157.67(12) . . . . ?
 O20 C22 C23 C24 -31.07(14) . . . . ?
 O20 C22 C21 O21 171.30(12) . . . . ?
 O20 C25 C24 O24 -147.54(12) . . . . ?
 O20 C25 C24 C23 -27.77(14) . . . . ?
 O20 C25 C26 O26 -69.96(15) . . . . ?
 O23 C23 C22 C21 84.57(16) . . . . ?
 O23 C23 C24 O24 -78.56(15) . . . . ?
 O23 C23 C24 C25 161.98(15) . . . . ?
 O21 C21 C22 C23 -72.19(16) . . . . ?
 O12 C12 C13 O13 63.48(14) . . . . ?
 O12 C12 C13 C14 -178.36(13) . . . . ?
 O24 C24 C23 C22 154.92(16) . . . . ?
 O24 C24 C25 C26 91.69(15) . . . . ?
 O26 C26 C25 C24 48.49(17) . . . . ?
 O13 C13 C12 C11 -174.34(12) . . . . ?
 O13 C13 C14 O14 -64.56(16) . . . . ?
 O13 C13 C14 C15 177.46(14) . . . . ?
 O16 C16 C15 C14 63.85(18) . . . . ?
 O14 C14 C15 C16 64.61(15) . . . . ?
 O14 C14 C13 C12 174.58(15) . . . . ?
 C11 C12 C13 C14 -56.18(15) . . . . ?
 C22 C23 C24 C25 35.46(14) . . . . ?
 C23 C24 C25 C26 -148.55(14) . . . . ?
 C12 C13 C14 C15 56.60(15) . . . . ?

loop_
  _diffrn_refln_index_h
  _diffrn_refln_index_k
  _diffrn_refln_index_l
  _diffrn_refln_intensity_net
  _diffrn_refln_intensity_u
  _diffrn_refln_scale_group_code
 0 -11 0 -9.52332 47.2411 3
 0 -11 1 676.5 86.2362 3
 0 -11 -1 704.652 88.0713 3
 0 -11 -2 588.958 81.8935 3
 0 -11 2 565.178 80.5906 3
 0 -11 -3 455.742 74.4284 3
 0 -11 3 352.182 59.973 3
 0 -11 -4 410.592 66.8779 3
 0 -11 -5 40.3844 45.6053 3
 0 -10 0 553.345 77.0406 3
 0 -10 -1 193.679 50.3449 3
 0 -10 1 145.057 44.4214 3
 0 -10 2 521.896 71.3002 3
 0 -10 -2 472.016 71.4349 3
 0 -10 -3 9.0256 39.323 3
 0 -10 3 -8.25199 32.4533 3
 0 -10 -4 18.302 44.7439 3
 0 -10 -5 167.037 46.9888 3
 0 -10 -6 263.064 57.4231 3
 0 -10 -7 246.915 61.1524 3
 0 -9 0 -7.7477 29.7705 3
 0 -9 1 76.1917 42.457 3
 0 -9 -1 86.2876 36.7139 3
 0 -9 2 82.7141 40.4537 3
 0 -9 -2 79.568 40.113 3
 0 -9 3 1427.91 108.031 3
 0 -9 -3 1474.49 110.05 3
 0 -9 -4 363.184 58.3086 3
 0 -9 4 386.401 60.4598 3
 0 -9 -5 84.1996 46.3728 3
 0 -9 6 23.9663 34.1553 1
 0 -9 -6 -17.1295 38.6726 3
 0 -9 7 475.068 71.3994 1
 0 -9 -7 296.466 60.116 3
 0 -9 8 268.772 61.1676 1
 0 -9 9 132.327 51.5343 1
 0 -8 0 2367.11 136.546 3
 0 -8 -1 1196.9 91.2822 3
 0 -8 1 1077.31 89.1924 3
 0 -8 2 812.541 76.9777 3
 0 -8 -2 820.435 75.6731 3
 0 -8 3 504.028 61.4825 3
 0 -8 -3 530.362 65.3004 3
 0 -8 3 475.447 58.0005 1
 0 -8 4 1512.08 101.443 1
 0 -8 -4 1361.63 103.505 3
 0 -8 4 1362.79 98.1908 3
 0 -8 -5 956.371 86.6551 3
 0 -8 5 1034.23 85.3049 1
 0 -8 -6 1543.89 110.796 3
 0 -8 6 1389.82 105.961 1
 0 -8 -7 740.937 78.6585 3
 0 -8 7 731.43 81.7604 1
 0 -8 8 1101.18 100.565 1
 0 -8 9 486.524 72.9401 1
 0 -8 10 343.102 69.9912 1
 0 -8 -10 489.041 73.5486 8
 0 -7 0 13.5406 24.8178 1
 0 -7 0 -5.82873 33.1479 3
 0 -7 -1 3342.01 162.032 3
 0 -7 1 3233.95 149.817 1
 0 -7 1 3345.46 161.441 3
 0 -7 2 1308.89 88.4199 3
 0 -7 2 1294.81 82.6585 1
 0 -7 -2 1235.06 88.6803 3
 0 -7 -3 982.208 78.4789 3
 0 -7 3 886.433 74.4483 3
 0 -7 3 960.17 72.7837 1
 0 -7 4 167.053 36.6643 3
 0 -7 4 210.842 39.745 1
 0 -7 -4 193.326 43.9775 3
 0 -7 5 967.936 79.3065 1
 0 -7 -5 1045.05 82.9692 3
 0 -7 -6 1849.76 115.943 8
 0 -7 -6 1788.67 118.056 3
 0 -7 6 2086.92 123.16 1
 0 -7 -7 1649.64 111.164 8
 0 -7 7 1850.63 116.987 1
 0 -7 -7 1590.24 110.563 3
 0 -7 8 3402.02 180.029 1
 0 -7 -8 3419.59 179.436 8
 0 -7 9 891.136 90.4678 1
 0 -7 -9 927.908 92.8776 8
 0 -7 -10 631.051 81.5355 8
 0 -7 10 454.441 74.2796 1
 0 -7 11 250.681 56.2855 1
 0 -7 -11 109.185 52.2727 8
 0 -6 0 2472.62 114.603 1
 0 -6 0 2382.23 122.747 3
 0 -6 1 1718.05 96.4812 3
 0 -6 1 1651.84 89.0334 1
 0 -6 -1 1553.4 84.8419 1
 0 -6 -1 1772.87 98.412 3
 0 -6 2 1901.1 102.539 3
 0 -6 2 1902.15 98.7593 1
 0 -6 -2 1928.24 105.435 3
 0 -6 -2 1726.06 90.842 1
 0 -6 3 388.923 45.5763 1
 0 -6 -3 477.176 44.6266 8
 0 -6 3 386.208 46.8473 3
 0 -6 -3 429.481 49.0885 3
 0 -6 4 3734.83 171.49 1
 0 -6 -4 3574.56 172.207 3
 0 -6 4 4017.12 170.471 3
 0 -6 -4 3843.44 168.819 8
 0 -6 5 2597.4 125.329 3
 0 -6 -5 2662.68 134.071 3
 0 -6 5 2386.89 129.122 1
 0 -6 -5 2343.07 127.046 8
 0 -6 -6 1170.24 83.3008 3
 0 -6 6 1119.51 85.6155 1
 0 -6 -6 1107.82 83.7379 8
 0 -6 7 606.453 67.8521 1
 0 -6 -7 615.749 62.9189 3
 0 -6 -7 562.211 64.2989 8
 0 -6 8 103.592 38.2867 1
 0 -6 -8 22.4258 35.5007 8
 0 -6 9 886.373 84.2013 1
 0 -6 -9 708.432 77.429 8
 0 -6 -10 97.2282 43.9422 8
 0 -6 10 86.2509 41.6465 1
 0 -6 11 165.783 55.9654 1
 0 -6 -11 181.721 51.0237 8
 0 -6 12 186.208 56.2866 1
 0 -6 -12 326.633 64.5284 8
 0 -5 0 -12.0371 23.3088 3
 0 -5 0 3.14539 16.043 1
 0 -5 0 -6.57855 12.1972 8
 0 -5 -1 2505.04 114.29 1
 0 -5 -1 2566.38 111.499 8
 0 -5 1 2867.25 121.936 1
 0 -5 -1 2938.99 128.505 3
 0 -5 1 2866.88 125.479 3
 0 -5 -2 2015.24 99.2642 8
 0 -5 -2 2339.22 113.32 3
 0 -5 -2 2253.27 101.109 1
 0 -5 2 2342.07 107.758 1
 0 -5 2 2388.22 110.093 3
 0 -5 3 6747.06 249.704 3
 0 -5 -3 6850.92 255.786 3
 0 -5 3 6421.06 250.394 1
 0 -5 -3 6041.27 243.683 8
 0 -5 4 3498.36 155.264 1
 0 -5 4 3532.79 149.947 3
 0 -5 -4 3201.43 150.168 8
 0 -5 -4 3561.19 155.997 3
 0 -5 5 1119.97 70.1924 3
 0 -5 -5 1105.26 75.4707 8
 0 -5 -5 1253.07 79.1003 3
 0 -5 5 1100.42 77.6062 1
 0 -5 -6 2250.29 120.099 8
 0 -5 -6 1991.58 112.04 3
 0 -5 6 2200.57 120.446 1
 0 -5 -7 5.35951 24.2072 3
 0 -5 -7 12.512 33.5927 8
 0 -5 7 50.0282 30.5799 1
 0 -5 8 199.315 46.0467 1
 0 -5 -8 139.098 41.5743 8
 0 -5 9 1095.66 92.0679 1
 0 -5 -9 1287.11 97.9772 8
 0 -5 10 350.09 57.923 1
 0 -5 -10 393.837 62.7744 8
 0 -5 -11 -9.07727 39.5527 8
 0 -5 11 61.4724 42.9391 1
 0 -5 12 -9.45276 42.6884 1
 0 -5 -12 58.4389 44.736 8
 0 -4 0 10373.7 346.378 6
 0 -4 0 10587.3 346.818 7
 0 -4 0 9973.33 352.594 1
 0 -4 0 10010.3 345.264 8
 0 -4 0 9991.36 359.41 3
 0 -4 1 3348.27 127.537 7
 0 -4 -1 3485.12 128.955 1
 0 -4 -1 3420.39 122.58 7
 0 -4 1 3274 135.965 3
 0 -4 -1 3298.44 128.334 8
 0 -4 -1 3237.22 129.74 1
 0 -4 -1 2964.97 119.576 4
 0 -4 1 3418.15 127.995 6
 0 -4 -1 3186.01 120.022 5
 0 -4 -1 3227.24 137.612 3
 0 -4 -1 3473.75 122.317 6
 0 -4 1 3488.8 134.588 1
 0 -4 2 625.373 34.5169 4
 0 -4 2 484.121 36.4623 6
 0 -4 -2 526.368 32.2448 5
 0 -4 -2 555.39 39.4284 8
 0 -4 -2 521.006 32.2894 4
 0 -4 -2 495.818 36.5797 1
 0 -4 2 591.816 33.83 5
 0 -4 2 544.815 42.0638 3
 0 -4 2 462.923 36.9326 7
 0 -4 -2 651.82 46.8546 3
 0 -4 2 702.948 45.1288 1
 0 -4 -2 503.159 35.3761 1
 0 -4 -3 4772.52 170.259 1
 0 -4 -3 4696.56 182.666 3
 0 -4 3 4707.55 182.345 1
 0 -4 -3 4361.51 167.587 4
 0 -4 3 4527.16 176.211 3
 0 -4 -3 4669.72 168.811 5
 0 -4 -3 4057.06 174.892 8
 0 -4 -4 88.2287 23.9211 3
 0 -4 -4 119.249 26.4609 8
 0 -4 4 112.182 25.4076 1
 0 -4 -4 157.094 22.8597 5
 0 -4 -4 73.1674 19.5201 4
 0 -4 4 162.362 24.2757 3
 0 -4 5 1133.14 75.2522 1
 0 -4 5 1178.66 67.9542 3
 0 -4 -5 1299.01 71.0402 5
 0 -4 -5 1261.24 75.1506 3
 0 -4 -5 1242.53 77.0714 8
 0 -4 -5 1373.52 72.6865 4
 0 -4 -6 742.198 57.0894 4
 0 -4 -6 925.695 68.4958 8
 0 -4 6 861.2 66.6654 1
 0 -4 -6 810.656 58.6503 5
 0 -4 -6 835.036 60.8508 3
 0 -4 -7 211.152 36.6789 4
 0 -4 -7 186.944 35.2906 5
 0 -4 -7 139.823 36.036 8
 0 -4 -7 173.46 33.4353 3
 0 -4 7 212.029 43.1018 1
 0 -4 -8 3384.89 165.702 5
 0 -4 8 3781.57 177.499 1
 0 -4 -8 3726.75 177.915 8
 0 -4 -8 3653.2 169.744 4
 0 -4 9 1193.3 94.6535 1
 0 -4 -9 1311.74 91.9798 5
 0 -4 -9 1307.15 91.0219 4
 0 -4 -9 1331.75 98.183 8
 0 -4 -10 111.796 37.6195 5
 0 -4 -10 87.2197 35.9134 8
 0 -4 -10 48.9499 37.1901 4
 0 -4 10 115.317 45.2104 1
 0 -4 11 1715.19 120.456 1
 0 -4 -11 1706.38 117.231 5
 0 -4 -11 2036.2 128.88 8
 0 -4 12 573.468 76.8996 1
 0 -4 -12 550.576 74.3317 8
 0 -4 13 302.831 66.5144 1
 0 -4 -13 209.146 57.7995 8
 0 -3 0 13.471 10.5355 7
 0 -3 0 1.34454 9.01908 6
 0 -3 0 13.9188 17.3975 3
 0 -3 0 -5.50265 12.5887 1
 0 -3 0 -5.25704 8.95266 8
 0 -3 1 27041.2 840.495 6
 0 -3 -1 23410.8 832.092 5
 0 -3 -1 25670.4 833.617 7
 0 -3 1 26803.7 833.697 5
 0 -3 -1 25128.5 839.626 8
 0 -3 -1 25978.1 839.148 1
 0 -3 1 26210.7 845.874 3
 0 -3 1 26781.5 833.799 4
 0 -3 -1 25679.4 832.977 6
 0 -3 -1 23944.1 832.426 4
 0 -3 1 26354.2 844.29 1
 0 -3 -1 25973.2 847.938 3
 0 -3 1 26280.7 840.138 7
 0 -3 -1 26500.9 840.88 1
 0 -3 2 4489.57 152.853 4
 0 -3 2 4211.92 159.539 3
 0 -3 2 4429.96 158.487 7
 0 -3 -2 4073.51 151.657 5
 0 -3 2 4413.56 158.406 6
 0 -3 -2 4069.51 158.765 8
 0 -3 -2 4170.76 154.104 1
 0 -3 2 4199.71 161.231 1
 0 -3 2 4566.45 153.127 5
 0 -3 -2 4290.41 163.395 3
 0 -3 -2 3896.27 151.195 4
 0 -3 -3 9853.02 348.243 5
 0 -3 -3 9727 355.286 8
 0 -3 -3 9684.47 341.519 6
 0 -3 -3 10099.8 341.385 7
 0 -3 3 10623.7 352.596 3
 0 -3 -3 10201.5 341.236 2
 0 -3 -3 10239.9 347.565 1
 0 -3 -3 10075.8 348.979 4
 0 -3 3 10793 349.152 4
 0 -3 3 10427.7 358.63 1
 0 -3 3 11094.5 349.68 5
 0 -3 -3 10218.3 356.69 3
 0 -3 4 15922.4 543.002 3
 0 -3 -4 16500.9 541.345 1
 0 -3 4 17420.6 545.03 5
 0 -3 -4 16198 554.032 8
 0 -3 4 17262.2 544.738 4
 0 -3 -4 15518.9 535.356 7
 0 -3 -4 16094.9 549.117 3
 0 -3 -4 15688.7 535.693 6
 0 -3 4 17848.2 557.845 1
 0 -3 -4 15826 545.515 4
 0 -3 -4 15389.7 544.63 5
 0 -3 -4 15692.3 535.543 2
 0 -3 5 1027.91 55.5127 3
 0 -3 -5 1023.21 53.0191 6
 0 -3 -5 953.77 52.2981 7
 0 -3 -5 993.117 52.6536 2
 0 -3 -5 991.055 60.5405 3
 0 -3 -5 974.924 60.6866 5
 0 -3 -5 890.008 63.1206 8
 0 -3 -5 967.073 60.3716 4
 0 -3 5 1106.79 67.2235 1
 0 -3 -6 170.998 26.7668 3
 0 -3 -6 126.529 26.6745 5
 0 -3 -6 151.247 30.7757 8
 0 -3 6 143.411 32.9967 1
 0 -3 -6 122.116 25.714 4
 0 -3 -7 2543.01 130.557 8
 0 -3 -7 2481.03 124.361 4
 0 -3 -7 2535.89 124.886 5
 0 -3 7 2521.69 129.122 1
 0 -3 8 4846.4 217.285 1
 0 -3 -8 5364.71 218.549 4
 0 -3 -8 5120.47 216.973 5
 0 -3 -8 4758.5 218.845 8
 0 -3 9 4419.32 203.245 1
 0 -3 -9 4385.72 204.7 8
 0 -3 -9 4256.95 198.359 4
 0 -3 -9 4287.84 199.138 5
 0 -3 10 1121.3 91.4174 1
 0 -3 -10 1130.5 93.7313 8
 0 -3 -10 1052.25 88.6848 4
 0 -3 -10 1110.69 89.4083 5
 0 -3 -11 156.589 45.6897 4
 0 -3 11 185.104 52.0146 1
 0 -3 -11 115.315 42.2339 8
 0 -3 -11 109.757 40.7541 5
 0 -3 -12 803.18 82.2637 4
 0 -3 12 631.446 77.5768 1
 0 -3 -12 854.83 86.2598 5
 0 -3 -12 695.959 80.2096 8
 0 -3 -13 28.6285 40.0354 8
 0 -3 -13 101.87 49.1333 5
 0 -3 -13 37.0036 42.5115 4
 0 -3 13 37.5297 42.3913 1
 0 -2 0 32929 1051.58 3
 0 -2 0 31755.9 1041.31 4
 0 -2 0 32379.4 1044.19 8
 0 -2 0 31431.6 1041.17 5
 0 -2 0 33542.5 1044.73 7
 0 -2 0 32591.6 1047.91 1
 0 -2 0 33205.1 1044.8 6
 0 -2 1 24623 765.348 7
 0 -2 -1 22494.2 759.739 5
 0 -2 -1 23020.3 764.78 8
 0 -2 1 24533.8 765.349 6
 0 -2 1 24091.7 760.827 5
 0 -2 -1 23711.2 769.033 3
 0 -2 -1 23425.8 763.273 1
 0 -2 1 23707.4 767.344 1
 0 -2 1 22895.9 766.884 3
 0 -2 1 24263.7 760.815 4
 0 -2 -1 22494.3 759.722 4
 0 -2 -2 11213.3 376.195 7
 0 -2 -2 11831.1 386.77 3
 0 -2 2 12131.8 381.721 5
 0 -2 -2 11241.8 376.226 2
 0 -2 -2 11129.8 380.765 5
 0 -2 2 11847.9 385.965 6
 0 -2 2 12191.3 381.744 4
 0 -2 -2 10903.9 380.6 4
 0 -2 -2 11361.1 381.131 1
 0 -2 -2 10855.7 385.446 8
 0 -2 2 11822.3 387.823 1
 0 -2 -2 11138.6 376.507 6
 0 -2 2 11661.9 383.407 3
 0 -2 2 11988.6 386.028 7
 0 -2 3 15768.9 522.328 3
 0 -2 -3 16330.5 522.665 1
 0 -2 3 16646.7 525.564 4
 0 -2 -3 15054 524.796 5
 0 -2 3 16036 519.863 8
 0 -2 -3 15408.7 518.851 2
 0 -2 3 16471.6 529.09 6
 0 -2 3 16274.4 531.179 1
 0 -2 3 16387.3 529.104 7
 0 -2 -3 16102.9 527.2 3
 0 -2 -3 15092.3 524.856 4
 0 -2 3 16318.2 525.231 5
 0 -2 -3 15409.8 518.631 7
 0 -2 -3 15246.5 518.452 6
 0 -2 -3 14837.3 529.007 8
 0 -2 4 5967.14 205.565 8
 0 -2 4 5949.05 210.932 5
 0 -2 4 5850.75 205.584 3
 0 -2 -4 5829.95 210.199 3
 0 -2 4 6024.35 211.517 4
 0 -2 -4 5504.13 203.994 7
 0 -2 -4 5804.06 212.925 5
 0 -2 -4 5891.4 207.222 1
 0 -2 4 6178.52 217.947 1
 0 -2 -4 5529.92 215.261 8
 0 -2 -4 5397.62 211.142 4
 0 -2 -4 5644.67 204.768 6
 0 -2 -5 7951.14 287.127 6
 0 -2 5 8272.22 285.979 3
 0 -2 -5 8045.7 296.485 5
 0 -2 5 8902.47 287.917 8
 0 -2 -5 8172.92 290.236 3
 0 -2 -5 7745.19 286.63 7
 0 -2 5 8479.85 300.233 1
 0 -2 -5 7666.26 294.871 4
 0 -2 -5 8530.89 301.831 8
 0 -2 -6 3178.23 132.628 3
 0 -2 -6 3393.86 147.045 8
 0 -2 -6 3344.49 143.508 5
 0 -2 -6 3036.83 131.713 7
 0 -2 6 3369.24 145.578 1
 0 -2 -6 3190.11 142.177 4
 0 -2 -6 3277.52 134.227 6
 0 -2 -7 1840.23 92.3326 6
 0 -2 7 1914.22 102.399 1
 0 -2 -7 1742.72 98.6535 5
 0 -2 -7 1835.07 92.0495 7
 0 -2 -7 1728.04 100.546 8
 0 -2 -7 1880.63 101.779 4
 0 -2 8 226.266 39.2094 1
 0 -2 -8 263.119 44.1331 8
 0 -2 -8 127.221 34.3307 5
 0 -2 -8 197.562 38.7234 4
 0 -2 -9 938.326 77.1504 5
 0 -2 -9 886.946 75.3197 8
 0 -2 -9 958.323 77.5052 4
 0 -2 9 774.387 70.4402 1
 0 -2 10 251.361 48.2058 1
 0 -2 -10 233.563 50.2685 5
 0 -2 -10 323.739 52.0399 4
 0 -2 -10 192.769 45.4811 8
 0 -2 -11 164.355 46.5826 4
 0 -2 11 154.89 43.7525 1
 0 -2 -11 94.3147 42.3953 5
 0 -2 -11 109.575 40.6612 8
 0 -2 12 436.513 65.3784 1
 0 -2 -12 439.778 67.4604 5
 0 -2 -12 434.016 65.8491 8
 0 -2 -12 524.465 71.3942 4
 0 -2 -13 466.603 69.2525 8
 0 -2 13 511.278 69.6155 1
 0 -2 -13 515.057 73.3615 5
 0 -2 -13 551.379 73.6361 4
 0 -2 -14 99.9039 46.9116 4
 0 -2 -14 179.926 49.8405 5
 0 -2 -14 174.792 59.49 8
 0 -2 14 191.137 50.2962 1
 0 -1 0 4.75982 4.87308 1
 0 -1 0 20.8857 6.91562 3
 0 -1 -1 15126 508.633 5
 0 -1 1 16238.5 509.28 4
 0 -1 -1 15504.2 511.264 8
 0 -1 -1 15858.5 511.359 3
 0 -1 1 16050.5 511.545 6
 0 -1 1 15427.6 509.712 3
 0 -1 -1 15094 508.588 4
 0 -1 1 15959.3 509.176 5
 0 -1 -1 15372.9 506.527 2
 0 -1 -1 16007 509.283 1
 0 -1 1 15702.1 506.924 8
 0 -1 1 15908 511.999 1
 0 -1 1 16521.4 511.848 7
 0 -1 -2 39635.5 1297.64 3
 0 -1 -2 39187.8 1294.97 7
 0 -1 -2 38676.1 1298.62 5
 0 -1 -2 39037.3 1300.77 8
 0 -1 -2 38708.8 1294.96 6
 0 -1 2 41087.3 1299.15 4
 0 -1 2 41084.6 1299.09 5
 0 -1 2 41506.9 1295.56 8
 0 -1 -2 39184.4 1298.73 4
 0 -1 -2 41992.6 1297.18 1
 0 -1 2 40950.5 1301.28 1
 0 -1 2 41872.8 1295.45 3
 0 -1 -3 2299.15 95.1723 4
 0 -1 3 2434.11 95.1387 4
 0 -1 3 2422.09 91.3267 8
 0 -1 3 2483.83 95.4364 5
 0 -1 3 2482.23 97.477 1
 0 -1 -3 2287.1 91.1281 6
 0 -1 -3 2493.2 92.4798 3
 0 -1 3 2404.18 89.338 3
 0 -1 -3 2478.69 92.9148 1
 0 -1 -3 2232.36 94.9709 5
 0 -1 -3 2248.54 90.9012 7
 0 -1 -3 2339.99 96.7813 8
 0 -1 -4 2447.39 94.9537 3
 0 -1 4 2359.53 98.5628 6
 0 -1 -4 2495.55 96.5891 1
 0 -1 4 2298.6 91.1953 3
 0 -1 -4 2396.83 92.8611 3
 0 -1 4 2494.08 99.5082 4
 0 -1 -4 2358.67 96.5556 7
 0 -1 4 2476.81 95.966 8
 0 -1 -4 2167.18 99.2672 5
 0 -1 4 2185.09 97.058 7
 0 -1 4 2480.17 99.3718 5
 0 -1 4 2539.13 102.783 1
 0 -1 -4 2275.99 95.7039 6
 0 -1 -4 2239.89 100.726 8
 0 -1 -4 2298.55 100.465 4
 0 -1 5 446.786 33.396 8
 0 -1 -5 402.358 36.8227 4
 0 -1 -5 360.148 32.4283 7
 0 -1 5 455.235 39.5717 1
 0 -1 -5 385.459 35.8042 5
 0 -1 -5 398.022 35.8108 8
 0 -1 -5 366.829 28.0749 3
 0 -1 -5 424.341 31.1159 3
 0 -1 -5 394.95 34.1598 6
 0 -1 5 408.246 28.6825 3
 0 -1 -6 415.05 41.6989 5
 0 -1 -6 431.781 40.6074 8
 0 -1 -6 345.857 31.1973 3
 0 -1 -6 448.251 41.9978 4
 0 -1 -6 277.803 33.8211 7
 0 -1 -6 333.623 34.7218 6
 0 -1 6 408.156 40.3505 1
 0 -1 6 365.947 29.579 3
 0 -1 -7 671.779 52.0917 7
 0 -1 -7 626.318 50.8297 6
 0 -1 7 808.707 60.4484 1
 0 -1 -7 570.031 52.9326 8
 0 -1 -7 672.327 56.6754 4
 0 -1 -7 742.634 57.6565 5
 0 -1 -8 291.977 39.7925 6
 0 -1 -8 371.561 48.2099 4
 0 -1 -8 341.144 48.9661 5
 0 -1 8 415.233 51.0519 1
 0 -1 -8 336.834 43.2221 7
 0 -1 -8 340.759 44.8729 8
 0 -1 -9 2370.22 127.467 5
 0 -1 -9 2290.16 125.372 8
 0 -1 -9 2033.21 114.794 7
 0 -1 -9 2142.38 123.379 4
 0 -1 9 2281.35 124.007 1
 0 -1 -9 2166.53 117.714 6
 0 -1 -10 871.294 83.4892 5
 0 -1 -10 1064.66 85.2756 8
 0 -1 -10 955.684 85.1971 4
 0 -1 -11 437.612 61.7136 4
 0 -1 -11 356.849 53.6972 8
 0 -1 11 485.621 60.8599 1
 0 -1 -11 559.3 70.41 5
 0 -1 -12 34.6027 39.7305 5
 0 -1 -12 -16.1777 36.526 8
 0 -1 -12 34.4043 39.5028 4
 0 -1 12 40.0442 41.3973 1
 0 -1 13 155.731 49.9659 1
 0 -1 -13 113.505 44.1893 8
 0 -1 -13 224.65 53.4488 4
 0 -1 -13 131.613 48.8293 5
 0 -1 -14 865.555 95.2515 4
 0 -1 -14 898.466 97.7391 5
 0 -1 14 913.409 93.0151 1
 0 0 2 9243.97 296.424 6
 0 0 -2 8755.33 296.692 8
 0 0 2 8810.37 292.132 3
 0 0 -2 8870.67 298.005 5
 0 0 -2 9044.05 296.097 1
 0 0 -2 8514.4 296.162 6
 0 0 -2 8925.66 292.27 3
 0 0 2 9098.57 297.143 1
 0 0 2 9105.79 296.443 8
 0 0 -2 8667.27 297.647 4
 0 0 -2 8708.81 296.376 7
 0 0 2 9093.05 296.216 7
 0 0 3 65347.9 2057.21 7
 0 0 3 64082.8 2051.92 3
 0 0 -3 62209.4 2058.54 8
 0 0 -3 66081.2 2057.64 1
 0 0 -3 61986.4 2060.06 5
 0 0 -3 61133.8 2057.94 7
 0 0 -3 60756.9 2057.84 6
 0 0 3 66109.3 2059.63 1
 0 0 3 65846.4 2058.04 8
 0 0 3 66064.3 2057.63 6
 0 0 -3 62649.5 2060.27 4
 0 0 -3 63955.8 2051.86 3
 0 0 -4 1121.21 58.5075 4
 0 0 4 1054.72 49.3255 3
 0 0 4 1084.21 53.6175 6
 0 0 -4 999.592 54.9547 7
 0 0 4 1115.84 53.9879 7
 0 0 -4 986.859 54.6498 6
 0 0 4 1070.23 56.7857 1
 0 0 -4 1109.38 53.9866 1
 0 0 -4 1079.92 56.2326 8
 0 0 -4 1137.84 48.4032 3
 0 0 -4 1166.16 59.8964 5
 0 0 4 1076.26 54.0124 8
 0 0 -5 561.021 42.9279 5
 0 0 -5 547.155 40.9147 6
 0 0 -5 534.941 42.534 4
 0 0 -5 520.782 40.5428 7
 0 0 -5 561.376 34.347 3
 0 0 -5 504.86 39.0769 8
 0 0 -5 612.635 34.2292 3
 0 0 5 620.201 43.4155 1
 0 0 6 3700.53 149.504 1
 0 0 -6 3534.21 150.868 4
 0 0 -6 3576.14 147.603 7
 0 0 -6 3739.2 152.832 5
 0 0 -6 3220.39 133.808 3
 0 0 -6 3370.44 146.002 6
 0 0 -6 3584.16 147.907 8
 0 0 7 34.6709 20.8883 1
 0 0 -7 20.9933 21.7146 6
 0 0 -7 28.0442 22.5258 4
 0 0 -7 29.7685 20.8052 8
 0 0 -7 32.9494 25.5888 5
 0 0 -7 4.20708 22.0422 7
 0 0 -8 1914.96 110.189 4
 0 0 -8 1972.87 106.5 7
 0 0 8 1940.86 106.729 1
 0 0 -8 1952.66 106.224 6
 0 0 -8 2031.24 107.747 8
 0 0 -8 2065.06 113.427 5
 0 0 -9 22.1943 26.7282 6
 0 0 -9 44.4575 26.3611 7
 0 0 -9 -37.5998 33.6467 5
 0 0 -9 12.4561 32.1931 4
 0 0 -9 -16.9388 26.3619 8
 0 0 9 51.0663 28.9413 1
 0 0 -10 753.591 71.9531 8
 0 0 10 872.939 75.4264 1
 0 0 -10 891.042 81.4203 5
 0 0 -10 842.634 80.2643 4
 0 0 -10 797.93 71.5626 6
 0 0 -10 922.322 76.8784 7
 0 0 -11 140.344 46.3558 4
 0 0 -11 91.3988 37.9045 8
 0 0 -11 96.8173 39.4788 7
 0 0 11 105.911 38.9753 1
 0 0 -11 125.614 44.7801 5
 0 0 -11 104.086 39.1824 6
 0 0 12 301.012 55.6242 1
 0 0 -12 330.616 53.5122 8
 0 0 -12 398.747 66.3288 5
 0 0 -12 369.732 63.8028 4
 0 0 -13 678.006 82.2843 5
 0 0 13 752.865 78.9309 1
 0 0 -13 608.532 82.5892 4
 0 0 -14 10.0708 41.3767 4
 0 0 -14 60.691 46.4622 5
 0 1 0 1.1509 4.77664 1
 0 1 1 15679.5 517.415 1
 0 1 -1 16483.5 519.979 6
 0 1 1 15463.3 516.367 4
 0 1 -1 16221.8 517.359 5
 0 1 -1 15965.8 514.871 8
 0 1 -1 15767.9 517.846 3
 0 1 -1 16328.6 519.854 7
 0 1 1 15986.1 518.904 3
 0 1 1 15754.6 516.507 5
 0 1 -1 16237.7 517.395 4
 0 1 2 40815.8 1326.64 5
 0 1 2 40392.2 1326.52 4
 0 1 2 40553.6 1326.61 1
 0 1 -2 42327.2 1330.58 6
 0 1 -2 40389.4 1327.88 5
 0 1 -2 41408.4 1324.5 8
 0 1 2 41024.1 1323.16 7
 0 1 -2 41973.5 1323.67 3
 0 1 2 41236.5 1323.18 6
 0 1 2 40699.3 1325.9 3
 0 1 -2 40973.8 1328.05 4
 0 1 -2 42264.3 1330.54 7
 0 1 3 2240.88 93.4364 1
 0 1 3 2521.15 91.6338 7
 0 1 -3 2378.81 88.516 3
 0 1 3 2470.72 94.9894 4
 0 1 3 2486.02 91.4508 6
 0 1 -3 2379.54 98.019 6
 0 1 -3 2239.95 95.5673 5
 0 1 -3 2408.61 98.1849 7
 0 1 -3 2353.2 96.3002 4
 0 1 3 2402.5 91.3399 3
 0 1 3 2551.98 95.5798 5
 0 1 -3 2343.95 92.688 8
 0 1 4 2392.58 94.452 6
 0 1 -4 2286.11 101.119 5
 0 1 4 2466.65 95.0969 7
 0 1 -4 2331.69 101.177 4
 0 1 4 2536.49 99.5446 4
 0 1 4 2415.8 99.4064 1
 0 1 -4 2269.58 96.2894 8
 0 1 -4 2225.23 100.836 6
 0 1 4 2371.48 98.5582 8
 0 1 4 2540.65 99.7059 5
 0 1 -4 2256.3 101.066 7
 0 1 -4 2306.34 89.5982 3
 0 1 -5 353.632 35.3243 5
 0 1 -5 411.334 37.2914 6
 0 1 5 379.753 31.0936 6
 0 1 -5 401.47 37.1899 4
 0 1 5 383.854 35.0771 1
 0 1 5 437.404 32.9817 7
 0 1 -5 403.763 26.7067 3
 0 1 -5 417.65 37.5752 7
 0 1 -5 351.811 31.8939 8
 0 1 6 360.234 36.8969 1
 0 1 -6 355.942 39.8107 5
 0 1 -6 341.606 34.4997 8
 0 1 -6 317.49 37.5286 6
 0 1 -6 418.72 40.5102 7
 0 1 -6 306.135 36.6805 4
 0 1 -7 718.384 56.1906 6
 0 1 7 601.674 51.6574 1
 0 1 -7 603.692 53.4842 7
 0 1 -7 678.896 56.3821 4
 0 1 -7 603.155 55.3049 5
 0 1 -7 598.773 49.3362 8
 0 1 -8 320.646 44.0159 4
 0 1 8 307.663 41.3137 1
 0 1 -8 410.269 48.3715 5
 0 1 -8 344.763 45.48 6
 0 1 -8 392.758 47.0436 7
 0 1 -8 395.042 44.053 8
 0 1 -9 2260.29 125.787 7
 0 1 -9 2412.28 131.226 5
 0 1 -9 2366.69 127.416 6
 0 1 9 2127.68 120.056 1
 0 1 -9 2395.14 130.066 4
 0 1 -9 2287.48 121.333 8
 0 1 10 999.252 79.621 1
 0 1 -10 967.527 84.7322 5
 0 1 -10 1036.42 78.6234 8
 0 1 -10 1108.87 88.4895 4
 0 1 -10 964.331 81.5848 7
 0 1 -10 1007.1 81.5356 6
 0 1 -11 531.366 65.968 4
 0 1 -11 387.264 56.8161 6
 0 1 -11 409.274 61.5847 7
 0 1 11 465.577 59.5758 1
 0 1 -11 377.772 58.3965 5
 0 1 -12 7.97228 35.3864 7
 0 1 -12 23.9536 34.1527 6
 0 1 -12 42.8804 41.321 4
 0 1 -12 69.0893 40.3305 5
 0 1 -13 216.716 58.9579 5
 0 1 -13 196.246 54.6818 4
 0 1 -14 794.108 91.1066 4
 0 1 -14 960.589 99.1329 5
 0 2 0 33159 1054.62 7
 0 2 0 33402.3 1057.31 1
 0 2 0 33836.8 1053.83 8
 0 2 0 31735.5 1051.09 4
 0 2 0 32736.7 1054.54 6
 0 2 0 32204.3 1051.11 5
 0 2 1 24536.5 762.442 3
 0 2 1 24020.2 754.222 5
 0 2 -1 23593.4 760.559 7
 0 2 -1 23177.3 752.803 8
 0 2 -1 23987.1 761.127 1
 0 2 1 22868.3 758.248 8
 0 2 1 20802.2 752.219 6
 0 2 1 23288.7 752.692 2
 0 2 -1 23694.9 760.563 3
 0 2 -1 23452.9 755.132 5
 0 2 -1 23906 760.786 6
 0 2 1 23580 753.911 6
 0 2 1 22944.5 752.838 7
 0 2 -1 23992.9 755.374 4
 0 2 1 23758.9 754.329 7
 0 2 1 23401.5 759.08 1
 0 2 1 23894.3 754.259 4
 0 2 -2 11766.3 390.691 4
 0 2 -2 11810.3 394.185 1
 0 2 2 11423.1 384.033 7
 0 2 -2 12005.8 390.975 5
 0 2 -2 12002.6 396.04 7
 0 2 2 11545.7 391.012 1
 0 2 -2 11963.6 395.918 6
 0 2 2 11900.3 393.506 3
 0 2 2 11494.5 388.523 4
 0 2 2 11925.8 388.963 5
 0 2 2 11266.6 384.01 6
 0 2 -2 11739.9 385.615 8
 0 2 -2 12439.4 391.367 3
 0 2 2 11817.4 392.889 8
 0 2 -3 15528 536.654 6
 0 2 3 15865.9 528.992 4
 0 2 3 16234.5 530.786 3
 0 2 -3 15811.7 537.105 7
 0 2 -3 16319.5 534.126 1
 0 2 -3 16591.2 533.194 4
 0 2 -3 16345.1 532.904 5
 0 2 3 16109.5 533.033 8
 0 2 3 16028.6 529.309 5
 0 2 3 15562.3 523.205 7
 0 2 -3 16664.8 528.126 3
 0 2 -3 15818.3 525.623 8
 0 2 3 15531.5 530.489 1
 0 2 3 15594.5 523.425 6
 0 2 4 5943.45 211.048 3
 0 2 -4 5573.61 219.268 7
 0 2 4 5447.13 212.106 1
 0 2 -4 5767.19 208.787 8
 0 2 -4 6160.24 207.438 3
 0 2 4 5957.63 206.224 7
 0 2 -4 5815.44 220.694 6
 0 2 4 5917.82 206.107 6
 0 2 4 5894.85 212.096 4
 0 2 4 6244.59 213.564 5
 0 2 -4 5935.58 217.472 5
 0 2 -4 5912.99 216.752 4
 0 2 -5 8396.16 305.883 4
 0 2 -5 7405.97 293.233 8
 0 2 5 8271.71 291.446 7
 0 2 -5 8553.69 306.207 5
 0 2 5 7817.56 298.59 1
 0 2 5 8807.73 292.834 6
 0 2 -5 8953.74 310.959 6
 0 2 -5 8998.8 311.149 7
 0 2 5 8492.53 295.215 3
 0 2 -5 8929.39 290.668 3
 0 2 6 3358.05 140.827 1
 0 2 -6 3215.91 146.123 6
 0 2 -6 3340.86 147.144 7
 0 2 -6 3144.35 134.01 8
 0 2 -6 3387.65 144.779 4
 0 2 -6 3211 143.182 5
 0 2 7 1590.55 90.4786 1
 0 2 -7 1823.67 98.9092 5
 0 2 -7 1679.36 97.8028 6
 0 2 -7 1790.63 89.754 8
 0 2 -7 1707.46 98.9728 7
 0 2 -7 1821.88 99.2891 4
 0 2 8 166.646 33.9832 1
 0 2 -8 283.821 45.0432 4
 0 2 -8 188.387 31.9166 8
 0 2 -8 169.173 35.3048 7
 0 2 -8 203.116 38.0675 6
 0 2 -8 208.758 40.6417 5
 0 2 -9 870.766 73.1612 4
 0 2 -9 752.618 71.5193 7
 0 2 9 882.894 69.5718 1
 0 2 -9 876.532 74.3228 5
 0 2 -9 935.174 76.0312 6
 0 2 -10 289.595 52.4139 5
 0 2 10 158.361 38.1426 1
 0 2 -10 161.207 43.3239 7
 0 2 -10 336.669 54.6471 4
 0 2 -10 209.645 44.3744 6
 0 2 -11 138.117 44.1924 6
 0 2 -11 117.833 41.2248 5
 0 2 -11 215.589 49.2432 7
 0 2 -12 344.064 57.464 7
 0 2 -12 377.556 62.5488 4
 0 2 -12 432.147 67.4161 5
 0 2 -12 318.205 56.4795 6
 0 2 -13 379.171 64.4819 7
 0 2 -13 427.805 67.2425 4
 0 2 -13 487.024 70.8131 5
 0 2 -13 515.328 71.3351 6
 0 2 -14 124.938 50.4589 7
 0 2 -14 173.387 53.7016 6
 0 2 -14 100.046 46.0943 4
 0 2 -14 80.7108 46.4801 5
 0 3 0 4.39809 6.71978 4
 0 3 0 6.94448 6.98174 5
 0 3 0 4.18535 9.43133 7
 0 3 0 -3.32608 11.4989 1
 0 3 0 -1.39789 9.59437 6
 0 3 0 6.07936 8.4688 8
 0 3 0 2.8754 7.58205 4
 0 3 0 -1.90894 7.20317 5
 0 3 -1 26971.8 866.079 1
 0 3 -1 26471.6 857.833 4
 0 3 1 25939.6 857.676 7
 0 3 -1 26251 857.553 5
 0 3 -1 27085.7 867.984 3
 0 3 1 25129.2 857.403 6
 0 3 1 27132.5 862.765 8
 0 3 1 26193.4 856.456 2
 0 3 1 27199.9 856.431 5
 0 3 -1 26946.4 856.385 8
 0 3 -1 25911.1 865.261 6
 0 3 -1 25464.7 864.613 7
 0 3 1 27352.3 856.603 4
 0 3 2 4248.74 157.914 1
 0 3 -2 4535.03 159.826 3
 0 3 -2 4236.11 149.911 8
 0 3 2 3746.57 150.042 7
 0 3 2 4403.46 149.025 6
 0 3 2 4474.33 152.569 4
 0 3 -2 4368.88 162.46 7
 0 3 2 4531.6 153.016 5
 0 3 -2 4401.21 154.694 5
 0 3 2 3890.53 149.611 6
 0 3 -2 4407.92 154.902 4
 0 3 2 4486.3 149.082 2
 0 3 2 4389.15 161.338 3
 0 3 -2 4404.64 160.954 1
 0 3 2 4274.51 148.433 7
 0 3 -2 4306.02 162.032 6
 0 3 2 4299.5 158.122 8
 0 3 3 10642.6 353.274 7
 0 3 3 10938.7 359.773 4
 0 3 3 10611.8 365.117 8
 0 3 3 10666.7 359.49 5
 0 3 -3 10200.6 369.49 7
 0 3 3 10821.4 353.733 6
 0 3 3 9703.6 362.921 1
 0 3 -3 10841.8 363.476 5
 0 3 -3 10745 355.623 8
 0 3 3 10687.7 366.361 3
 0 3 -3 10890.2 362.869 3
 0 3 -3 10402.2 370.057 6
 0 3 -3 10683.6 363.302 4
 0 3 -4 15922 556.63 7
 0 3 -4 16479.2 549.33 4
 0 3 -4 16389.4 549.181 5
 0 3 4 15019.3 545.622 1
 0 3 -4 16166.6 538.605 8
 0 3 4 16393.7 543.78 5
 0 3 -4 17153.8 543.399 3
 0 3 -4 16171.1 557.189 6
 0 3 4 16209.3 543.367 4
 0 3 -5 1046.65 66.8284 7
 0 3 -5 931.708 59.8081 5
 0 3 5 969.484 57.6105 1
 0 3 -5 918.438 51.7051 8
 0 3 -5 979.422 60.8677 4
 0 3 -5 994.162 64.7103 6
 0 3 -6 204.752 37.2405 7
 0 3 -6 161.399 30.7737 5
 0 3 -6 176.22 34.1201 6
 0 3 6 175.002 27.9202 1
 0 3 -6 177.219 31.4206 4
 0 3 -7 2475.49 123.443 5
 0 3 -7 2445.36 123.321 4
 0 3 -7 2455.77 128.691 7
 0 3 7 2527.48 119.092 1
 0 3 -7 2325.43 125.763 6
 0 3 8 4938.44 209.735 1
 0 3 -8 5240.57 224.179 7
 0 3 -8 5128.83 217.782 4
 0 3 -8 4932.03 216.473 5
 0 3 -8 5232.68 223.976 6
 0 3 -9 4504.55 206.256 5
 0 3 -9 4618.69 207.038 4
 0 3 -9 4638.56 211.15 7
 0 3 -9 4442.23 208.848 6
 0 3 -10 1157.51 91.0858 5
 0 3 -10 1145.99 91.9965 7
 0 3 -10 1129.69 90.8353 6
 0 3 -10 973.951 84.2016 4
 0 3 -11 121.809 42.1265 7
 0 3 -11 124.523 41.4276 4
 0 3 -11 94.0548 38.4885 5
 0 3 -11 113.33 37.9615 6
 0 3 -12 746.858 84.8882 7
 0 3 -12 769.086 83.9812 4
 0 3 -12 705.21 81.0184 5
 0 3 -12 814.225 85.559 6
 0 3 -13 75.5587 48.226 7
 0 3 -13 74.0924 44.6693 4
 0 3 -13 121.26 46.327 5
 0 3 -13 28.257 41.8536 6
 0 4 0 9508.96 339.782 7
 0 4 0 10913.8 338.815 8
 0 4 0 9702.98 334.854 4
 0 4 0 10620.1 345.35 1
 0 4 0 9152.93 334.375 5
 0 4 0 9681.73 340.223 6
 0 4 0 10447.4 333.272 5
 0 4 0 10333.7 333.123 4
 0 4 -1 3250.18 122.652 5
 0 4 -1 3403.81 122.1 4
 0 4 -1 3343.35 131.85 7
 0 4 1 3605.22 129.429 8
 0 4 1 3207.41 124.149 7
 0 4 -1 3289.24 131.59 6
 0 4 -1 3474.48 123.058 8
 0 4 1 3665.75 122.139 5
 0 4 1 3536.05 121.663 4
 0 4 1 3107.54 124.079 6
 0 4 -1 3409.54 122.185 5
 0 4 -1 3238.75 122.911 4
 0 4 -1 3547.41 133.7 1
 0 4 2 552.779 31.4078 5
 0 4 -2 503.191 39.6429 7
 0 4 2 547.265 38.0382 1
 0 4 -2 551.973 40.8157 6
 0 4 2 584.299 31.7719 4
 0 4 -2 550.231 33.6701 5
 0 4 2 566.466 31.9151 6
 0 4 2 540.059 31.3132 7
 0 4 -2 585.138 33.9821 4
 0 4 2 570.114 37.8836 8
 0 4 3 4353.88 171.131 1
 0 4 -3 4441.08 178.078 6
 0 4 -3 4539.59 168.539 4
 0 4 -3 4737.65 169.23 5
 0 4 -3 4313.2 177.234 7
 0 4 4 72.2709 21.5187 1
 0 4 -4 109.627 20.5069 4
 0 4 -4 184.02 29.829 7
 0 4 -4 169.025 28.4568 6
 0 4 -4 162.108 24.4957 5
 0 4 -5 1156.36 76.0621 6
 0 4 -5 1273.74 71.5735 4
 0 4 -5 1286.47 71.9743 5
 0 4 5 1178.02 70.6669 1
 0 4 -6 907.024 68.763 6
 0 4 -6 814.043 60.5289 4
 0 4 -6 942.612 69.2606 7
 0 4 6 862.257 59.2952 1
 0 4 -6 813.482 60.4355 5
 0 4 -7 246.001 44.4619 6
 0 4 -7 166.919 32.8783 5
 0 4 -7 268.816 39.9054 4
 0 4 -7 210.912 40.198 7
 0 4 -8 3597.56 169.503 4
 0 4 -8 3450.82 176.361 7
 0 4 -8 3717.08 179.102 6
 0 4 -8 3882.61 174.279 5
 0 4 -9 1401.54 104.468 7
 0 4 -9 1380.93 103.654 6
 0 4 -9 1446.59 97.8269 4
 0 4 -9 1393.17 98.1985 5
 0 4 -10 102.421 44.8757 6
 0 4 -10 133.986 43.4091 7
 0 4 -10 91.0194 36.2777 4
 0 4 -10 35.244 30.2433 5
 0 4 -11 1720.2 124.784 6
 0 4 -11 1845.02 121.555 5
 0 4 -11 1563.84 120.535 7
 0 4 -11 1887.22 122.318 4
 0 4 -12 470.843 68.2152 5
 0 4 -12 544.182 73.8805 4
 0 4 -12 531.846 73.1962 6
 0 4 -12 533.699 70.1209 7
 0 4 -13 127.654 47.7568 6
 0 4 -13 222.359 52.5296 5
 0 4 -13 239.129 54.3848 4
 0 4 -13 285.62 64.8354 7
 0 5 0 11.6169 13.5051 6
 0 5 0 18.4976 14.122 7
 0 5 -1 2471.89 107.06 7
 0 5 -1 2536.3 107.661 6
 0 5 -2 2031.02 98.4778 7
 0 5 -2 2340.75 101.954 6
 0 5 -3 6412.55 246.891 6
 0 5 -3 6698.86 248.799 7
 0 5 3 6458.62 242.16 1
 0 5 -4 3225.59 146.77 7
 0 5 -4 3216.14 146.636 6
 0 5 4 3355.24 140.152 1
 0 5 -5 1260.75 80.932 7
 0 5 -5 1157.07 80.1161 6
 0 5 -6 2161.68 119.062 7
 0 5 -6 2226.42 121.121 6
 0 5 -7 31.6203 28.5765 6
 0 5 -7 37.9659 30.4981 7
 0 5 -8 153.547 41.2171 7
 0 5 -8 132.499 40.3446 6
 0 5 -9 1193.91 96.8034 6
 0 5 -9 1170.11 97.1685 7
 0 5 -10 415.256 65.0694 6
 0 5 -10 382.097 59.6341 7
 0 5 -11 8.97413 34.483 7
 0 5 -11 8.95729 32.7385 6
 0 5 -12 28.69 40.0939 6
 0 5 -12 -38.4032 37.7588 7
 0 6 -2 1640.52 87.7159 7
 0 6 -2 1847.41 90.8412 6
 0 6 -3 314.91 38.8319 6
 0 6 -3 335.13 39.8458 7
 0 6 -4 3745.01 165.954 6
 0 6 -4 3684.93 165.748 7
 0 6 -5 2333.8 124.844 6
 0 6 -5 2480.53 127.641 7
 0 6 -6 1057.98 81.261 7
 0 6 -6 1076.63 80.63 6
 0 6 -7 670.965 68.1623 7
 0 6 -7 609.428 65.4524 6
 0 6 -8 66.7309 32.3405 6
 0 6 -8 29.6776 32.3616 7
 0 6 -9 1018.01 88.986 6
 0 6 -9 824.211 83.4049 7
 0 6 -10 61.007 40.7506 6
 0 6 -10 87.2576 49.6741 7
 0 6 -11 365.446 64.5492 7
 0 6 -11 243.096 61.4815 6
 0 6 -12 139.088 53.0085 6
 0 6 -12 239.414 59.4334 7
 0 7 -4 137.048 33.4142 6
 0 7 -4 163.061 35.8747 7
 0 7 -5 1000.45 77.6628 6
 0 7 -5 900.193 76.5426 7
 0 7 -6 1974.51 120.827 6
 0 7 -6 2086 123.427 7
 0 7 -7 1477.86 105.483 6
 0 7 -7 1349.04 102.554 7
 0 7 -8 3110.23 170.461 6
 0 7 -8 3137.51 170.596 7
 0 7 -9 1111.52 97.0754 6
 0 7 -9 950.71 91.7472 7
 0 7 -10 663.898 81.3805 6
 0 7 -10 592.068 80.056 7
 0 7 -11 165.327 56.7878 7
 0 7 -11 193.988 53.0202 6
 0 8 -7 774.536 79.031 7
 0 8 -8 732.651 80.4355 7
 0 8 -8 879.016 82.9035 6
 0 8 -9 442.445 70.1536 7
 0 8 -9 300.742 59.9796 6
 0 8 -10 452.903 67.5841 7
 0 8 -10 405.324 63.7119 6
 1 -11 -4 191.476 59.0608 3
 -1 -11 4 302.12 61.4272 3
 -1 -11 3 418.02 66.3114 3
 1 -11 -3 347.2 69.6779 3
 -1 -11 2 65.8153 39.475 3
 1 -11 -2 68.3887 48.5098 3
 1 -11 -1 374.958 64.6805 3
 -1 -11 1 239.488 55.2922 3
 1 -11 0 169.61 54.4722 3
 -1 -11 0 193.037 55.7814 3
 1 -11 1 387.275 61.3379 3
 -1 -11 -1 456.755 73.6289 3
 -1 -11 -2 274.261 59.8671 3
 -1 -11 -3 483.342 73.7351 3
 -1 -11 -4 149.085 56.7211 3
 1 -10 -8 19.8255 38.9898 3
 1 -10 -7 176.281 58.9109 3
 1 -10 -6 57.8809 44.3415 3
 1 -10 -5 198.488 54.6998 3
 -1 -10 4 471.282 68.1752 3
 1 -10 -4 351.983 60.5395 3
 1 -10 -3 181.307 46.5109 3
 -1 -10 3 135.625 46.3376 3
 1 -10 -2 595.066 76.6656 3
 -1 -10 2 730.43 80.4052 3
 1 -10 -1 1472.61 115.909 3
 -1 -10 1 1664.33 120.428 3
 1 -10 0 171.449 50.8597 3
 -1 -10 0 298.191 52.5261 3
 1 -10 1 109.045 41.1333 3
 -1 -10 -1 88.5504 44.6616 3
 -1 -10 -2 241.549 51.6902 3
 1 -10 2 114.914 41.0501 3
 -1 -10 -3 443.048 67.1616 3
 -1 -10 -4 336.428 64.2331 3
 -1 -10 -5 430.681 67.9442 3
 -1 -10 -6 137.993 48.3985 3
 1 -10 6 154.874 46.071 1
 1 -10 7 704.374 86.6725 1
 1 -9 -8 36.8815 40.9256 3
 1 -9 -7 208.23 53.5515 3
 1 -9 -6 239.224 57.5717 3
 -1 -9 5 242.107 49.9366 3
 1 -9 -5 336.418 62.4332 3
 -1 -9 4 106.205 38.4222 3
 1 -9 -4 193.337 49.033 3
 -1 -9 3 -7.65368 33.3459 3
 1 -9 -3 16.3633 36.3004 3
 1 -9 -2 1164.68 98.4421 3
 -1 -9 2 1008.91 92.2824 3
 -1 -9 1 226.157 51.6824 3
 1 -9 -1 272.744 53.6716 3
 -1 -9 0 266.89 51.4043 3
 1 -9 0 160.067 44.7637 3
 -1 -9 -1 2118.2 135.072 3
 1 -9 1 2503.72 143.174 3
 1 -9 2 769.513 79.1809 1
 1 -9 2 878.762 83.149 3
 -1 -9 -2 995.13 92.2555 3
 -1 -9 -3 105.215 45.1683 3
 1 -9 3 125.664 39.8611 1
 1 -9 4 85.3603 39.6511 1
 -1 -9 -4 65.3573 40.0148 3
 1 -9 5 170.879 46.2758 1
 -1 -9 -5 272.608 53.6406 3
 1 -9 6 394.045 63.6009 1
 -1 -9 -6 317.068 54.4354 3
 1 -9 7 198.486 53.3311 1
 1 -9 8 652.468 80.0357 1
 -1 -8 10 255.967 55.874 1
 -1 -8 9 34.3117 41.9525 1
 -1 -8 8 993.358 91.0802 1
 1 -8 -8 928.927 91.5221 3
 -1 -8 7 1493.94 108.706 1
 1 -8 -7 1649.24 116.027 3
 1 -8 -6 588.05 70.4943 3
 -1 -8 5 1905.13 117.633 3
 1 -8 -5 1732.01 119.781 3
 1 -8 -4 3315.72 173.401 3
 -1 -8 4 3124.73 163.506 3
 1 -8 -3 160.391 45.0031 3
 -1 -8 3 47.3648 32.2098 3
 1 -8 -2 1273.72 94.953 3
 -1 -8 2 1169.36 93.5442 3
 1 -8 -1 1776.96 114.028 3
 -1 -8 1 1790.1 116.013 3
 1 -8 0 682.395 67.317 1
 -1 -8 0 773.394 73.5008 3
 1 -8 0 741.895 73.7626 3
 1 -8 1 864.973 78.8101 3
 1 -8 1 1125.87 81.2101 1
 -1 -8 -1 972.113 83.7021 3
 1 -8 2 230.087 46.1303 1
 1 -8 2 282.481 47.8697 3
 -1 -8 -2 218.617 47.5713 3
 -1 -8 -3 1476.26 106.053 3
 1 -8 3 1647.82 105.129 3
 1 -8 3 1560.95 106.313 1
 1 -8 4 663.283 72.1012 1
 -1 -8 -4 708.88 75.0202 3
 1 -8 5 218.294 48.4309 1
 -1 -8 -5 161.63 41.7463 3
 1 -8 6 55.7562 42.2859 1
 -1 -8 -6 67.1909 36.0146 3
 -1 -8 -7 73.1488 40.9272 8
 1 -8 7 42.2807 35.4954 1
 1 -8 8 813.167 87.484 1
 -1 -8 -8 902.909 89.0718 8
 1 -8 9 829.099 89.1488 1
 -1 -8 -9 695.47 82.7974 8
 -1 -8 -10 290.04 65.613 8
 1 -7 -11 38.2593 39.3037 8
 -1 -7 11 28.0407 42.939 1
 1 -7 -10 106.661 47.2558 8
 -1 -7 10 104.939 48.1999 1
 1 -7 -9 1097.23 95.5614 8
 -1 -7 9 960.836 91.341 1
 1 -7 -8 280.053 51.6378 3
 1 -7 -8 336.171 58.1853 8
 -1 -7 7 734.693 74.7786 1
 1 -7 -7 946.03 84.6179 3
 -1 -7 6 3294.89 165.943 1
 1 -7 -6 3395.92 172.071 3
 1 -7 -5 723.568 74.8097 3
 -1 -7 5 881.668 72.1555 3
 -1 -7 5 907.873 76.2302 1
 -1 -7 4 736.576 66.6581 3
 -1 -7 4 773.862 65.2334 1
 1 -7 -4 710.947 71.848 3
 -1 -7 3 4186.58 196.591 3
 1 -7 -3 4606.62 204.437 3
 1 -7 -3 4434.19 190.009 1
 1 -7 -2 5459.91 227.82 1
 -1 -7 2 5715.21 238.81 3
 1 -7 -2 5582.56 240.677 3
 1 -7 -1 9428.05 363.643 3
 -1 -7 1 9535.3 364.14 3
 1 -7 -1 9359.3 353.374 1
 1 -7 0 1567.92 100.318 3
 1 -7 0 1666.11 96.3053 1
 -1 -7 0 1559.61 102.072 3
 1 -7 1 7847.44 303.909 3
 -1 -7 -1 7419.37 305.006 3
 1 -7 1 7701.65 301.389 1
 1 -7 2 4211.57 189.317 1
 1 -7 2 4232.89 188.336 3
 -1 -7 -2 4106.31 192.562 3
 1 -7 3 501.327 55.0885 3
 -1 -7 -3 402.24 52.8546 3
 1 -7 3 561.356 60.142 1
 -1 -7 -4 456.061 50.4965 8
 1 -7 4 361.335 52.584 1
 -1 -7 -4 365.955 52.8294 3
 1 -7 5 48.0859 28.2696 1
 -1 -7 -5 51.4303 30.0615 8
 -1 -7 -5 64.4482 32.4684 3
 1 -7 6 2596.77 147.617 1
 -1 -7 -6 2571 141.483 3
 -1 -7 -6 2526.2 143.384 8
 1 -7 7 471.128 66.0377 1
 -1 -7 -7 593.117 68.0046 8
 1 -7 8 343.126 59.6373 1
 -1 -7 -8 175.573 49.6845 8
 1 -7 9 337.972 64.1278 1
 -1 -7 -9 315.653 59.97 8
 -1 -7 -10 202.885 56.1498 8
 1 -7 10 338.41 65.9939 1
 -1 -7 -11 349.108 65.3828 8
 -1 -6 12 -48.1905 37.9046 1
 1 -6 -12 69.1307 46.8421 8
 -1 -6 11 377.043 67.2246 1
 1 -6 -11 266.607 57.5193 8
 1 -6 -10 306.015 56.3294 8
 -1 -6 10 416.27 68.2409 1
 1 -6 -9 450.095 63.4519 8
 -1 -6 9 376.897 61.9167 1
 1 -6 -8 802.762 76.7713 8
 1 -6 -8 768.991 74.0493 3
 -1 -6 8 858.864 79.649 1
 1 -6 -7 647.255 65.9526 8
 1 -6 -7 706.054 68.8465 3
 -1 -6 7 629.324 66.0072 1
 1 -6 -6 1834.56 107.646 3
 1 -6 -6 1642.09 101.465 8
 -1 -6 6 1624.13 98.5692 3
 -1 -6 6 1559.33 99.6782 1
 -1 -6 5 1622.67 98.3589 3
 1 -6 -5 1663.29 104.466 3
 1 -6 -5 1830.03 99.8254 8
 -1 -6 5 1645.25 98.9261 1
 -1 -6 4 915.447 68.0186 3
 1 -6 -4 822.288 70.265 3
 -1 -6 4 822.92 65.6627 1
 1 -6 -3 436.931 49.4292 3
 1 -6 -3 355.65 42.3954 1
 -1 -6 3 365.214 42.9378 1
 -1 -6 3 438.048 48.8392 3
 -1 -6 2 1881.82 105.026 3
 1 -6 -2 2002.55 108.85 3
 -1 -6 2 1884.72 95.9454 1
 1 -6 -2 1853.88 98.7539 1
 1 -6 -1 1433.37 84.8181 1
 -1 -6 1 1398.98 76.8727 1
 -1 -6 1 1573.88 92.6263 3
 1 -6 -1 1440.67 89.3767 3
 -1 -6 0 3378.38 158.627 3
 1 -6 0 3702.91 156.565 1
 1 -6 0 3352.95 156.881 3
 -1 -6 -1 3051.09 135.222 8
 1 -6 1 3117.26 143.335 3
 1 -6 1 3054.83 143.538 1
 -1 -6 -1 3165.24 147.937 3
 -1 -6 -2 3386.13 159.473 3
 1 -6 2 3513.91 159.684 1
 -1 -6 -2 3493.21 153.744 8
 1 -6 2 3564.62 157.163 3
 1 -6 3 37.3842 26.868 1
 1 -6 3 9.02645 21.07 3
 -1 -6 -3 -10.5329 24.9797 3
 -1 -6 -3 -4.74661 20.6806 8
 -1 -6 -4 21.6532 28.7111 3
 1 -6 4 17.3129 31.7342 1
 -1 -6 -4 10.7077 26.1804 8
 1 -6 5 714.233 68.2817 1
 -1 -6 -5 723.415 64.4124 3
 -1 -6 -5 690.267 67.7933 8
 -1 -6 -6 645.031 66.8603 8
 -1 -6 -6 879.703 69.9979 3
 1 -6 6 870.757 76.6071 1
 -1 -6 -7 999.721 85.5134 8
 1 -6 7 948.757 84.8442 1
 -1 -6 -8 150.374 44.2747 8
 1 -6 8 147.625 45.8506 1
 -1 -6 -9 111.477 42.6494 8
 1 -6 9 83.4805 41.526 1
 -1 -6 -10 1109.21 102.116 8
 1 -6 10 1372.56 110.726 1
 -1 -6 -11 -9.8882 41.4619 8
 1 -6 11 -37.8684 41.2536 1
 1 -5 -13 416.452 72.2172 8
 -1 -5 13 330.886 63.4464 1
 1 -5 -12 38.0978 39.1251 8
 -1 -5 12 -9.33664 35.8769 1
 1 -5 -11 274.647 59.1059 8
 -1 -5 11 259.051 54.363 1
 1 -5 -10 399.328 63.4549 8
 -1 -5 10 371.958 60.9726 1
 -1 -5 9 724.179 77.5451 1
 1 -5 -9 802.007 77.3454 8
 1 -5 -8 2009.98 122.675 8
 1 -5 -8 2088.99 117.644 3
 -1 -5 8 1980.24 122.081 1
 1 -5 -7 328.869 48.1138 8
 1 -5 -7 375.833 49.3011 3
 -1 -5 7 360.764 50.6215 1
 1 -5 -6 3940.3 177.852 8
 -1 -5 6 3717.62 168.847 3
 1 -5 -6 4135.06 180.741 3
 -1 -5 6 4032.93 179.383 1
 1 -5 -5 861.809 67.3567 3
 1 -5 -5 728.68 59.6404 8
 -1 -5 5 756.571 59.2935 3
 -1 -5 5 830.658 62.7506 1
 -1 -5 4 1371.88 81.2079 1
 1 -5 -4 1397.29 79.0492 8
 1 -5 -4 1472.06 88.6904 3
 -1 -5 4 1360.07 81.4383 3
 -1 -5 3 3884.67 163.018 3
 1 -5 -3 3675.92 152.379 8
 -1 -5 3 3664.31 155.72 1
 1 -5 -3 3921.77 167.358 3
 1 -5 -2 3931.42 164.428 3
 -1 -5 2 3868.13 153.071 1
 1 -5 -2 3467.51 145.148 8
 -1 -5 2 3773.44 161.642 3
 1 -5 -2 3836.56 156.952 1
 1 -5 -1 2826.89 129.274 1
 -1 -5 1 2800.32 122.022 1
 -1 -5 1 3006 135.964 3
 1 -5 0 7350.26 265.212 3
 -1 -5 0 7139.33 265.643 3
 -1 -5 0 6849.88 247.176 4
 -1 -5 0 7016.11 248.682 1
 -1 -5 0 6778.65 246.647 5
 1 -5 0 7032.14 260.718 1
 -1 -5 0 6546.44 251.045 8
 -1 -5 -1 1670.31 81.5317 5
 -1 -5 -1 1708.94 82.1864 4
 -1 -5 -1 1882.8 97.8498 3
 1 -5 1 1836.87 93.8108 3
 1 -5 1 2059.13 98.8864 1
 -1 -5 -1 2111.84 93.4795 8
 -1 -5 -1 1929.2 83.0795 1
 -1 -5 -2 4839.1 187.816 8
 -1 -5 -2 4742.65 191.846 3
 1 -5 2 4816.43 187.177 3
 1 -5 2 4938.43 193.967 1
 -1 -5 -2 4507.44 176.981 4
 -1 -5 -2 4252.66 175.156 5
 -1 -5 -3 4773.95 190.719 3
 1 -5 3 5093.76 196.502 1
 -1 -5 -3 4655.23 188.626 8
 -1 -5 -3 4013.43 174.176 4
 -1 -5 -3 4204.09 175.29 5
 1 -5 3 4868.63 184.189 3
 -1 -5 -4 1163.39 68.8876 5
 -1 -5 -4 1020.71 66.1311 4
 1 -5 4 1239.9 81.5158 1
 -1 -5 -4 1094.9 72.7081 3
 -1 -5 -4 1137.3 75.0639 8
 1 -5 4 1169.52 67.7606 3
 1 -5 5 4930.36 215.838 1
 -1 -5 -5 5043.54 215.549 8
 -1 -5 -5 4938.78 207.591 3
 -1 -5 -5 5070.73 205.065 5
 -1 -5 -5 5205.18 206.046 4
 -1 -5 -6 3559.86 161.521 3
 1 -5 6 3628.21 171.758 1
 -1 -5 -6 3494.08 170.556 8
 1 -5 7 2034.61 121.563 1
 -1 -5 -7 2080.82 125.175 8
 -1 -5 -8 148.642 40.2443 8
 1 -5 8 187.255 48.9673 1
 1 -5 9 458.331 65.1369 1
 -1 -5 -9 454.874 63.7366 8
 -1 -5 -10 61.651 39.1356 8
 1 -5 10 75.6293 45.1674 1
 1 -5 11 -17.9885 47.1 1
 -1 -5 -11 -18.9567 38.9382 8
 -1 -5 -12 10.104 34.9336 8
 1 -5 12 19.1217 39.2754 1
 1 -4 -13 -59.1954 37.0169 8
 -1 -4 13 -9.6607 41.3231 1
 -1 -4 12 207.862 55.0523 1
 1 -4 -12 211.843 54.473 8
 -1 -4 11 166.176 50.5086 1
 1 -4 -11 161.68 45.984 8
 -1 -4 10 112.958 42.5365 1
 1 -4 -10 132.688 44.075 8
 1 -4 -9 84.9099 36.7157 8
 -1 -4 9 122.892 41.8009 1
 1 -4 -8 253.819 45.9628 8
 1 -4 -8 243.831 41.6378 3
 -1 -4 8 319.471 46.0184 1
 1 -4 -7 5974.93 250.663 8
 1 -4 -7 6048.63 245.373 3
 -1 -4 7 6258.65 251.814 1
 1 -4 -6 510.858 44.6638 4
 -1 -4 6 547.046 47.317 3
 1 -4 -6 489.152 49.8476 3
 1 -4 -6 487.147 42.6526 5
 1 -4 -6 531.312 52.9873 8
 -1 -4 6 554.371 52.6503 1
 1 -4 -5 1206.47 66.1487 5
 -1 -4 5 1246.21 75.7384 1
 -1 -4 5 1378.14 75.2274 3
 1 -4 -5 1277.05 77.6969 3
 1 -4 -5 1345.57 78.5182 8
 1 -4 -5 1230.19 66.8346 4
 -1 -4 4 4194.73 167.281 1
 -1 -4 4 4329.35 167.584 3
 1 -4 -4 4068.93 165.579 8
 1 -4 -4 4265.65 171.472 3
 1 -4 -4 3826.58 152.268 4
 1 -4 -4 3954.51 152.787 5
 -1 -4 3 8908.55 320.691 1
 -1 -4 3 9767.82 317.508 5
 1 -4 -3 9544.38 330.117 3
 1 -4 -3 8724.31 317.821 8
 -1 -4 3 9634.08 317.265 4
 1 -4 -3 8497.43 304.558 4
 1 -4 -3 8575.93 304.545 5
 -1 -4 3 9460.08 326.183 3
 1 -4 -2 3484.3 143.188 3
 -1 -4 2 3319.01 133.402 1
 1 -4 -2 3184.04 128.71 8
 1 -4 -2 3273.66 136.679 1
 -1 -4 2 3456.25 140.776 3
 -1 -4 1 25259.1 845.481 1
 -1 -4 1 26698.8 850.801 7
 -1 -4 1 26479.1 850.128 6
 1 -4 -1 25461 839.867 8
 1 -4 -1 24749.1 856.7 3
 1 -4 -1 25583.9 854.486 1
 -1 -4 1 25892.9 858.317 3
 -1 -4 0 5153.45 207.458 3
 1 -4 0 5519.58 206.976 1
 1 -4 0 5522.09 191.078 7
 -1 -4 0 5762.29 201.064 7
 -1 -4 0 5291.83 196.508 5
 -1 -4 0 5689.57 200.066 6
 -1 -4 0 5297.07 196.969 4
 -1 -4 0 5551.65 195.624 1
 -1 -4 0 5123.1 200.083 8
 1 -4 0 5457.87 186.917 8
 1 -4 0 5733.82 191.632 6
 1 -4 0 5284.16 206.035 3
 -1 -4 -1 5563.1 208.56 4
 1 -4 1 6035.77 216.607 3
 -1 -4 -1 5734.54 214.417 8
 1 -4 1 6066.07 220.05 1
 -1 -4 -1 5751.89 219.505 3
 -1 -4 -1 5672.32 201.894 1
 -1 -4 -1 5819.05 203.479 1
 1 -4 1 5865.53 206.025 6
 1 -4 1 5956.1 206.186 7
 -1 -4 -1 5428.44 207.524 5
 -1 -4 -2 14114.9 466.399 3
 -1 -4 -2 12196.7 460.089 8
 -1 -4 -2 12805.9 454.472 5
 1 -4 2 13765.6 454.875 7
 -1 -4 -2 13311 447.914 1
 1 -4 2 13685.9 454.731 6
 -1 -4 -2 12847.2 454.99 4
 1 -4 2 14875.2 470.906 1
 1 -4 2 13512.6 458.798 3
 -1 -4 -3 11219.9 374.587 8
 -1 -4 -3 10450.4 357.379 2
 1 -4 3 10068.2 360.357 3
 -1 -4 -3 10036.7 357.507 6
 -1 -4 -3 10264.1 362.848 5
 -1 -4 -3 10775.7 370.425 3
 -1 -4 -3 10055.3 362.517 4
 -1 -4 -3 10003.1 356.849 7
 1 -4 3 11073.2 376.268 1
 1 -4 4 4762.92 187.704 1
 -1 -4 -4 4547.15 176.529 4
 -1 -4 -4 4009.76 165.371 7
 -1 -4 -4 4717.53 186.195 8
 -1 -4 -4 4196.44 165.772 2
 -1 -4 -4 4181.57 166.934 6
 -1 -4 -4 4256.54 175.23 3
 1 -4 4 4491.32 168.087 3
 -1 -4 -4 4422.97 175.514 5
 -1 -4 -5 417.239 47.0938 8
 -1 -4 -5 333.291 39.638 4
 -1 -4 -5 336.058 38.431 5
 -1 -4 -5 313.245 35.6098 3
 1 -4 5 339.968 45.2502 1
 -1 -4 -6 1441.68 88.7249 4
 1 -4 6 1559.97 95.0316 1
 -1 -4 -6 1597.49 96.7003 8
 -1 -4 -6 1504 90.054 5
 -1 -4 -7 622.143 60.2549 4
 1 -4 7 773.739 66.3904 1
 -1 -4 -7 559.586 62.0636 8
 -1 -4 -7 577.464 59.4403 5
 -1 -4 -8 2350.98 134.787 8
 1 -4 8 2384.37 133.596 1
 -1 -4 -8 2136.65 125.595 4
 -1 -4 -8 2484.85 131.397 5
 1 -4 9 442.825 63.2555 1
 -1 -4 -9 530.735 61.9654 4
 -1 -4 -9 553.565 66.8105 8
 -1 -4 -9 495.753 60.7962 5
 -1 -4 -10 488.308 67.3136 8
 -1 -4 -10 519.426 66.671 4
 -1 -4 -10 623.618 70.8845 5
 1 -4 10 733.655 78.4884 1
 1 -4 11 911.397 89.103 1
 -1 -4 -11 692.424 79.2614 4
 -1 -4 -11 733.815 83.374 8
 -1 -4 -11 880.338 86.3173 5
 -1 -4 -12 572.73 74.0961 5
 1 -4 12 706.743 84.0206 1
 -1 -4 -12 654.97 80.4924 4
 -1 -4 -12 501.396 73.4831 8
 -1 -4 -13 102.366 48.5951 8
 -1 -4 -13 57.6893 48.4127 4
 -1 -4 -13 -9.59606 41.0762 5
 1 -4 13 137.038 50.6333 1
 1 -3 -14 105.72 45.6293 4
 1 -3 -14 40.5413 42.5379 8
 1 -3 -14 48.1485 41.2191 5
 1 -3 -13 28.5639 35.7083 8
 -1 -3 13 18.6482 37.4993 1
 1 -3 -13 8.93225 36.6962 4
 1 -3 -13 26.8731 39.7484 5
 1 -3 -12 634.204 76.9786 5
 -1 -3 12 634.33 78.9123 1
 1 -3 -12 692.24 79.09 8
 1 -3 -12 672.241 78.1727 4
 -1 -3 11 345.109 56.5115 1
 1 -3 -11 238.02 49.804 4
 1 -3 -11 310.422 54.9961 8
 1 -3 -11 186.986 46.4041 5
 1 -3 -10 2031.36 119.531 4
 -1 -3 10 1813.2 121.426 1
 1 -3 -10 1961.78 126.12 8
 1 -3 -10 1987.67 119.854 5
 -1 -3 9 4500.01 203.248 1
 1 -3 -9 4457.78 197.061 5
 1 -3 -9 4152.17 193.605 4
 1 -3 -9 4290.39 203.159 8
 1 -3 -8 430.133 55.1865 8
 1 -3 -8 505.688 53.5575 5
 1 -3 -8 528.103 52.5426 4
 -1 -3 8 443.929 52.7328 1
 1 -3 -8 388.44 45.3438 3
 1 -3 -7 404.67 48.2506 8
 -1 -3 7 416.199 40.686 3
 1 -3 -7 446.478 44.4125 5
 -1 -3 7 345.288 45.1642 1
 1 -3 -7 425.953 43.9901 4
 1 -3 -7 426.705 43.751 3
 1 -3 -6 1061.84 67.2438 3
 1 -3 -6 1088.32 65.4852 5
 1 -3 -6 1143.48 66.3198 4
 -1 -3 6 1070.61 71.2134 1
 -1 -3 6 1024.87 63.5662 3
 1 -3 -6 979.768 69.8054 8
 1 -3 -5 556.558 44.3241 3
 -1 -3 5 493.008 38.6731 3
 1 -3 -5 449.607 43.2443 8
 1 -3 -5 426.122 36.4775 4
 1 -3 -5 452.726 37.5162 5
 -1 -3 5 449.328 42.8511 1
 1 -3 -4 6.86157 12.4411 5
 -1 -3 4 19.068 18.2766 1
 1 -3 -4 10.1076 18.5332 3
 1 -3 -4 22.7273 12.6529 4
 1 -3 -4 19.2771 17.2584 8
 -1 -3 4 32.2776 17.4063 3
 -1 -3 3 1283.05 65.4377 1
 1 -3 -3 1344.6 69.7375 3
 1 -3 -3 1279.15 56.8188 5
 -1 -3 3 1263.93 65.9175 3
 1 -3 -3 1320.92 63.846 1
 -1 -3 3 1242.61 62.8376 5
 1 -3 -3 1158.32 63.1621 8
 1 -3 -3 1308.49 56.9444 4
 -1 -3 3 1347.69 63.802 4
 -1 -3 2 5991.27 206.898 6
 -1 -3 2 6040.79 203.759 4
 1 -3 -2 5752.82 210.776 3
 1 -3 -2 5792.8 205.559 1
 -1 -3 2 6158.08 207.671 7
 1 -3 -2 5383.75 191.016 4
 1 -3 -2 5581.53 201.665 8
 -1 -3 2 5600.01 208.135 3
 -1 -3 2 5825.63 202.98 5
 -1 -3 2 5541.71 202.683 1
 1 -3 -2 5436.01 191.048 5
 1 -3 -1 20994.5 655.753 1
 1 -3 -1 20048 657.37 1
 1 -3 -1 19781.8 645.376 8
 1 -3 -1 19982.7 658.839 3
 -1 -3 1 20688.1 655.452 7
 1 -3 -1 19545.4 637.539 7
 -1 -3 1 19648.2 648.633 1
 1 -3 -1 18996.1 637.386 6
 -1 -3 1 19267.4 657.89 3
 -1 -3 1 21063.8 655.129 6
 -1 -3 0 7517.33 273.143 3
 -1 -3 0 7415.93 265.704 5
 1 -3 0 7691.67 259.528 6
 -1 -3 0 7901 261.645 1
 -1 -3 0 7306.93 265.611 4
 1 -3 0 7734.82 272.982 1
 1 -3 0 7631.4 255.215 8
 1 -3 0 7745.51 259.654 7
 -1 -3 0 8166.76 268.56 6
 1 -3 0 7951.74 272.745 3
 -1 -3 0 8307.59 269.585 7
 -1 -3 0 7643.07 269.255 8
 -1 -3 -1 493.575 32.2213 5
 1 -3 1 502.075 34.3431 3
 -1 -3 -1 491.4 25.9993 1
 -1 -3 -1 523.988 35.4166 8
 -1 -3 -1 520.545 36.1276 3
 1 -3 1 480.586 30.2172 6
 1 -3 1 436.816 29.2755 7
 -1 -3 -1 519.839 32.9726 4
 1 -3 1 453.881 22.7732 5
 1 -3 1 471.534 36.5297 1
 -1 -3 -1 484.742 26.6538 1
 1 -3 1 439.816 22.5648 4
 1 -3 2 1239.74 61.6528 3
 -1 -3 -2 1387.81 65.6213 5
 1 -3 2 1431.53 57.6458 4
 -1 -3 -2 1242 62.3638 6
 -1 -3 -2 1276.54 61.5421 2
 -1 -3 -2 1262.78 62.3974 7
 -1 -3 -2 1340.44 69.2297 8
 1 -3 2 1396.67 71.2238 1
 -1 -3 -2 1313.41 66.6496 3
 1 -3 2 1409.73 57.7094 5
 1 -3 2 1454.4 64.9379 6
 -1 -3 -2 1409.12 56.0663 1
 1 -3 2 1478.09 65.3811 7
 -1 -3 -2 1263.27 64.3728 4
 -1 -3 -3 6048.86 208.013 1
 -1 -3 -3 5842.76 215.974 7
 1 -3 3 6282.77 213.28 5
 -1 -3 -3 6175.23 217.525 6
 -1 -3 -3 5706.08 225.01 8
 -1 -3 -3 6199.39 221.267 3
 1 -3 3 6212.76 213.011 4
 -1 -3 -3 5622.88 219.417 5
 -1 -3 -3 5796.09 215.186 2
 1 -3 3 6240.77 228.924 1
 -1 -3 -3 5811.36 220.654 4
 1 -3 3 6029.25 213.639 3
 -1 -3 -4 639.701 47.8846 4
 -1 -3 -4 652.668 43.5916 2
 -1 -3 -4 599.151 48.9063 8
 1 -3 4 712.135 39.5821 3
 -1 -3 -4 672.731 44.8246 3
 1 -3 4 749.565 52.5561 1
 -1 -3 -4 674.426 48.1799 5
 -1 -3 -4 654.893 43.5358 7
 -1 -3 -4 678.392 44.0452 6
 -1 -3 -5 4438.23 178.792 4
 -1 -3 -5 3984.88 167.931 7
 -1 -3 -5 4125.26 168.49 2
 -1 -3 -5 4466.45 183.151 8
 1 -3 5 4794.12 185.698 1
 -1 -3 -5 4089.03 168.674 6
 -1 -3 -5 4649.37 180.07 5
 -1 -3 -5 4404.1 169.315 3
 1 -3 6 259.67 38.4858 1
 -1 -3 -6 203.444 31.1913 2
 -1 -3 -6 289.152 38.9221 4
 -1 -3 -6 292.746 40.7135 8
 -1 -3 -6 267.753 31.8056 7
 -1 -3 -6 260.486 32.0902 6
 -1 -3 -6 206.215 34.0012 5
 -1 -3 -7 2709.53 140.221 8
 1 -3 7 3039.32 142.655 1
 -1 -3 -7 2605.84 135.609 4
 -1 -3 -7 2807.9 138.287 5
 -1 -3 -8 2946.76 156.113 8
 -1 -3 -8 3100.76 154.366 5
 -1 -3 -8 3026.82 153.498 4
 1 -3 8 3389.59 160.106 1
 -1 -3 -9 948.963 80.2989 4
 -1 -3 -9 1071.35 85.3949 8
 -1 -3 -9 947.76 79.2163 5
 1 -3 9 946.417 84.8734 1
 1 -3 10 1445.2 106.053 1
 -1 -3 -10 1375.11 104.738 4
 -1 -3 -10 1495.76 107.113 8
 -1 -3 -10 1373.39 103.691 5
 -1 -3 -11 114.87 37.74 5
 1 -3 11 80.7383 40.105 1
 -1 -3 -11 41.0761 33.8106 4
 -1 -3 -11 33.7167 38.1183 8
 -1 -3 -12 274.332 58.905 8
 -1 -3 -12 312.686 59.0165 5
 1 -3 12 175.857 54.23 1
 -1 -3 -12 223.675 55.6692 4
 -1 -3 -13 865.465 91.0442 5
 1 -3 13 803.319 89.5953 1
 -1 -3 -13 760.793 87.518 4
 -1 -3 -13 701.78 83.4431 8
 1 -2 -14 29.323 45.6331 8
 1 -2 -14 39.0619 48.4436 5
 -1 -2 14 9.61917 41.9118 1
 1 -2 -14 -9.72426 50.9209 4
 1 -2 -13 266.342 59.7141 8
 1 -2 -13 263.075 61.3984 5
 1 -2 -13 270.682 57.7006 4
 -1 -2 13 234.126 50.7478 1
 1 -2 -12 75.0218 41.4136 5
 1 -2 -12 59.5971 35.7677 8
 -1 -2 12 66.6527 43.1251 1
 1 -2 -12 90.9186 40.4757 4
 1 -2 -11 628.514 70.6762 4
 -1 -2 11 734.951 74.9506 1
 1 -2 -11 740.599 74.2102 8
 1 -2 -11 730.669 74.3937 5
 1 -2 -10 1141.68 88.8677 4
 1 -2 -10 1053.9 87.3882 8
 1 -2 -10 1169.82 90.0972 5
 -1 -2 10 1105.65 89.3519 1
 1 -2 -9 531.113 57.5196 5
 -1 -2 9 456.643 57.7721 1
 1 -2 -9 539.986 56.1257 4
 1 -2 -9 380.816 53.5057 8
 1 -2 -8 4879.87 209.374 5
 1 -2 -8 5074.9 215.196 8
 1 -2 -8 5033.45 210.702 4
 1 -2 -8 4901.07 201.545 3
 -1 -2 8 4926.22 212.537 1
 1 -2 -7 5650.79 222.577 5
 1 -2 -7 5503.44 216.608 3
 -1 -2 7 5572.54 225.508 1
 1 -2 -7 5347.85 225.039 8
 1 -2 -7 5802.04 223.429 4
 -1 -2 7 5374.83 211.141 3
 1 -2 -6 9051.89 314.728 5
 1 -2 -6 8794.8 313.458 4
 -1 -2 6 9201.05 319.864 1
 -1 -2 6 8468.2 306.326 3
 1 -2 -6 8207.36 299.229 7
 1 -2 -6 8359.25 310.45 3
 1 -2 -6 8384.73 299.88 6
 1 -2 -6 8509.36 317.85 8
 1 -2 -5 11251.7 412.392 4
 -1 -2 5 12432.1 413.798 3
 1 -2 -5 12909 423.16 8
 -1 -2 5 13158.6 422.721 1
 1 -2 -5 11890.3 415.907 3
 1 -2 -5 11542.4 413.143 5
 1 -2 -5 11732.2 402.322 7
 1 -2 -5 11671.3 402.381 6
 1 -2 -4 6156.92 231.879 5
 1 -2 -4 5974.88 236.899 8
 -1 -2 4 6557.79 234.703 3
 1 -2 -4 6651.03 238.924 3
 1 -2 -4 6231.54 222.068 7
 1 -2 -4 6239.47 232.206 4
 -1 -2 4 7047.12 237.121 5
 -1 -2 4 7096.73 234.044 8
 -1 -2 4 6784.92 239.013 1
 1 -2 -4 6413.07 222.456 6
 -1 -2 4 7032.4 237.835 4
 1 -2 -4 6733.12 234.315 1
 1 -2 -3 2367.01 93.0112 5
 -1 -2 3 2518.63 99.5515 1
 1 -2 -3 2303.25 83.647 6
 1 -2 -3 2590.37 98.504 1
 1 -2 -3 2364.17 92.937 4
 -1 -2 3 2343.1 97.0217 5
 -1 -2 3 2296.11 97.0939 3
 1 -2 -3 2287.37 97.8583 8
 1 -2 -3 2360.56 83.5634 7
 -1 -2 3 2380.75 97.0093 4
 1 -2 -3 2535.01 101.991 3
 1 -2 -2 9037.54 310.454 5
 1 -2 -2 9015.91 317.416 8
 1 -2 -2 9034.27 310.478 4
 1 -2 -2 9771 324.037 3
 -1 -2 2 10118.5 321.994 6
 -1 -2 2 9563.22 319.836 4
 1 -2 -2 9666.1 320.487 1
 -1 -2 2 9147.34 317.284 1
 -1 -2 2 9069.01 320.496 3
 -1 -2 2 10211.1 322.225 7
 -1 -2 2 9579.38 319.599 5
 -1 -2 1 5054.97 174.582 1
 -1 -2 1 5471.17 181.937 6
 1 -2 -1 4986.99 173.801 8
 -1 -2 1 4939.82 181.499 3
 1 -2 -1 5058.95 180.477 1
 1 -2 -1 4861.25 181.449 3
 -1 -2 1 5381.39 181.68 7
 1 -2 0 13468.8 449.985 3
 -1 -2 0 13486.6 440.44 1
 1 -2 0 14276.8 453.53 1
 -1 -2 0 12878.6 448.778 4
 -1 -2 0 13767.2 450.905 8
 -1 -2 0 13726.2 451.931 3
 1 -2 0 13490.6 442.103 7
 -1 -2 0 14167.7 450.606 6
 -1 -2 0 13896.1 450.773 7
 1 -2 0 13297.8 441.966 6
 -1 -2 0 13249.5 449.048 5
 -1 -2 -1 5271.33 187.515 4
 -1 -2 -1 5045.41 186.487 5
 1 -2 1 5281.99 183.916 7
 1 -2 1 5491.4 184.749 3
 -1 -2 -1 5286.49 185.842 2
 -1 -2 -1 5257.63 175.971 1
 1 -2 1 5159.85 177.612 4
 1 -2 1 5533.75 184.59 6
 -1 -2 -1 5343.19 186.539 7
 1 -2 1 5525.52 191.543 1
 -1 -2 -1 5392.63 186.789 6
 -1 -2 -1 5577.87 188.247 3
 1 -2 1 5113.13 177.622 5
 -1 -2 -1 5292.13 189.764 8
 -1 -2 -2 7075.4 260.176 5
 1 -2 2 7976.03 254.977 4
 -1 -2 -2 7478.44 258.038 3
 -1 -2 -2 7312.73 248.644 1
 1 -2 2 7842.33 254.995 5
 -1 -2 -2 7324.76 257.857 2
 -1 -2 -2 7066.3 257.736 6
 1 -2 2 8080.28 260.647 7
 1 -2 2 7449.71 264.223 1
 -1 -2 -2 6996.43 260.104 4
 1 -2 2 7654.46 253.326 3
 -1 -2 -2 7152.35 257.705 7
 1 -2 2 7498.82 245.52 8
 1 -2 2 8056.68 260.51 6
 -1 -2 -2 7170.2 263.588 8
 1 -2 3 8476.92 288.114 7
 -1 -2 -3 7405.51 284.245 7
 1 -2 3 8567.75 283.835 4
 -1 -2 -3 7999.3 276.439 1
 1 -2 3 8134.28 291.605 1
 -1 -2 -3 7949.37 285.214 2
 1 -2 3 8627.81 288.665 6
 1 -2 3 8511.47 283.851 5
 -1 -2 -3 7851.59 286.026 6
 -1 -2 -3 7793.03 290.79 8
 -1 -2 -3 8424.64 283.176 3
 -1 -2 -3 7625.14 288.069 4
 -1 -2 -3 7669.45 288.101 5
 1 -2 3 8644.55 276.428 3
 1 -2 3 8717.55 275.315 8
 1 -2 4 842.075 41.2418 8
 1 -2 4 834.72 46.9359 5
 -1 -2 -4 704.51 46.3073 6
 1 -2 4 875.315 53.6471 1
 -1 -2 -4 800.511 48.0444 2
 -1 -2 -4 732.418 40.6966 1
 1 -2 4 768.181 46.0311 4
 -1 -2 -4 603.196 48.2662 8
 -1 -2 -4 697.049 49.0781 5
 -1 -2 -4 718.15 46.3456 7
 -1 -2 -4 712.135 42.7282 3
 1 -2 4 830.655 37.8363 3
 -1 -2 -4 745.117 49.5489 4
 -1 -2 -5 2422.42 112.74 8
 -1 -2 -5 2449.94 112.017 5
 -1 -2 -5 2467.75 112.174 4
 1 -2 5 2463.61 112.138 1
 -1 -2 -5 2254.34 105.079 6
 -1 -2 -5 2379 98.3586 3
 -1 -2 -5 2155.63 103.784 7
 -1 -2 -6 1166.37 75.3329 5
 -1 -2 -6 1192.03 75.2103 8
 -1 -2 -6 1179.09 69.3903 6
 -1 -2 -6 1094.04 73.2105 4
 1 -2 6 1141.02 73.5411 1
 -1 -2 -6 1158.41 69.2845 7
 -1 -2 -7 68.8547 25.6194 7
 -1 -2 -7 67.5932 29.011 5
 -1 -2 -7 41.5742 28.996 4
 1 -2 7 90.1073 29.4726 1
 -1 -2 -7 109.839 33.4798 8
 -1 -2 -7 69.1951 25.9991 6
 -1 -2 -8 539.047 52.7576 7
 -1 -2 -8 494.46 57.1837 4
 -1 -2 -8 494.627 57.2158 8
 1 -2 8 457.462 52.1306 1
 -1 -2 -8 536.919 58.9804 5
 -1 -2 -8 468.436 49.7302 6
 -1 -2 -9 1257.78 90.909 4
 -1 -2 -9 1221.63 89.1975 8
 1 -2 9 1022.19 82.861 1
 -1 -2 -9 1291.94 92.3249 5
 -1 -2 -10 884.557 80.4198 8
 -1 -2 -10 1006.34 87.2249 4
 -1 -2 -10 783.142 79.2837 5
 1 -2 10 1011.26 85.2289 1
 -1 -2 -11 39.742 33.3388 8
 1 -2 11 54.1053 34.9158 1
 -1 -2 -11 32.8803 35.8285 4
 -1 -2 -11 8.22463 35.8484 5
 -1 -2 -12 816.881 84.1635 8
 -1 -2 -12 597.891 79.0463 4
 1 -2 12 709.085 79.9584 1
 -1 -2 -12 642.262 80.4217 5
 -1 -2 -13 596.452 78.5242 5
 -1 -2 -13 683.817 81.0603 4
 -1 -2 -13 442.601 67.0409 8
 1 -2 13 538.194 75.016 1
 1 -1 -14 473.633 75.3644 5
 1 -1 -14 353.193 68.8303 4
 1 -1 -14 461.519 69.4189 8
 -1 -1 14 514.99 74.1931 1
 1 -1 -13 1341.98 112.619 4
 -1 -1 13 1301.28 106.858 1
 1 -1 -13 1286.5 110.165 8
 1 -1 -13 1524.6 118.334 5
 1 -1 -12 299.846 56.9047 4
 1 -1 -12 406.543 61.9275 8
 1 -1 -12 327.101 56.8545 5
 -1 -1 12 331.186 58.4772 1
 1 -1 -11 1146.07 95.4303 5
 1 -1 -11 1248.85 96.664 8
 -1 -1 11 1202.94 96.2831 1
 1 -1 -11 1395.64 101.865 4
 -1 -1 10 5950.92 252.199 1
 1 -1 -10 5829.28 251.71 8
 1 -1 -10 5653.61 250.347 4
 1 -1 -10 5745.08 251.741 5
 1 -1 -9 2429.08 129.754 5
 1 -1 -9 2155.2 124.313 8
 -1 -1 9 2436.78 129.386 1
 1 -1 -9 2281.31 126.813 4
 1 -1 -8 1242 82.697 5
 1 -1 -8 1380.06 85.9329 8
 -1 -1 8 1310.11 85.0938 1
 1 -1 -8 1340.06 77.732 6
 1 -1 -8 1251.13 75.162 7
 1 -1 -8 1213.63 82.5443 4
 1 -1 -7 1393.74 82.597 5
 1 -1 -7 1376.97 82.6059 4
 1 -1 -7 1263.03 73.6002 3
 1 -1 -7 1303.2 73.8043 7
 -1 -1 7 1408.7 83.8416 1
 1 -1 -7 1376.44 83.3051 8
 -1 -1 7 1484.05 75.0358 3
 1 -1 -7 1440.53 75.8 6
 1 -1 -6 1481.26 75.7461 6
 1 -1 -6 1585.48 79.1628 3
 1 -1 -6 1652.74 85.1516 5
 1 -1 -6 1643.4 86.373 8
 -1 -1 6 1754 88.1435 1
 1 -1 -6 1446.61 75.1534 7
 1 -1 -6 1623.67 85.0541 4
 -1 -1 6 1542.44 76.6216 3
 -1 -1 5 1099.02 62.5177 1
 1 -1 -5 1017.85 59.8447 5
 1 -1 -5 1150.8 59.7386 3
 1 -1 -5 1072.6 60.472 4
 1 -1 -5 952.647 52.8759 7
 1 -1 -5 970.266 60.3738 8
 1 -1 -5 1026.57 54.1764 6
 1 -1 -5 1165.12 56.6915 3
 -1 -1 5 1075.21 56.8348 3
 1 -1 -4 7581.72 276.88 5
 -1 -1 4 8034.43 280.138 1
 -1 -1 4 8443.99 277.845 6
 1 -1 -4 7463.54 269.489 6
 -1 -1 4 8309.67 277.464 7
 1 -1 -4 7477.1 269.433 7
 -1 -1 4 8118.82 277.888 5
 1 -1 -4 8026.58 276.148 1
 -1 -1 4 8223.02 276.391 8
 -1 -1 4 8152.31 276.273 3
 1 -1 -4 7630.39 276.732 3
 -1 -1 4 7940.2 277.382 4
 1 -1 -4 7304.82 278.721 8
 1 -1 -4 8222.96 274.82 3
 1 -1 -4 7732.71 277.261 4
 1 -1 -3 1872.88 80.8357 5
 -1 -1 3 2054.11 82.9812 3
 -1 -1 3 2119.66 84.5923 1
 -1 -1 3 1939.48 82.4624 4
 -1 -1 3 2085.64 83.1419 6
 1 -1 -3 1962.73 75.4734 6
 -1 -1 3 2108.54 83.0804 7
 1 -1 -3 1967.91 84.2597 8
 1 -1 -3 1986.06 81.7059 4
 1 -1 -3 2004.64 81.37 3
 -1 -1 3 2013.19 82.9309 5
 1 -1 -3 1983.66 81.9491 1
 1 -1 -3 1938.56 83.4179 3
 -1 -1 3 2089.19 82.4374 8
 1 -1 -3 1913.04 75.1495 7
 1 -1 -2 19080.9 637.73 5
 1 -1 -2 19054.9 637.82 4
 -1 -1 2 20242.1 641.291 1
 1 -1 -2 19545.8 632.232 7
 1 -1 -2 19304 632.224 6
 -1 -1 2 19634.3 642.487 5
 1 -1 -2 19743.8 641.913 8
 1 -1 -2 20153 643.543 3
 -1 -1 2 19866.7 642.645 4
 -1 -1 2 20184.1 642.351 3
 -1 -1 1 3830.52 134.105 5
 1 -1 -1 3820.61 134.016 3
 -1 -1 1 3867.25 129.028 1
 1 -1 -1 3611.94 127.278 4
 1 -1 -1 3832.5 130.642 8
 1 -1 -1 3608.19 127.158 5
 -1 -1 1 4005.83 134.696 4
 -1 -1 1 3918.84 133.965 3
 1 -1 0 10804.9 356.535 3
 1 -1 0 10886.5 352.117 5
 -1 -1 0 10717 359.517 8
 1 -1 0 10891.6 352.151 4
 -1 -1 0 11106 359.67 4
 1 -1 0 10908.1 359.34 1
 1 -1 0 10603.7 354.208 6
 -1 -1 0 10896.7 357.543 3
 1 -1 0 10790.9 354.44 7
 -1 -1 0 11076.3 359.502 5
 1 -1 1 55591.5 1723.5 4
 1 -1 1 53344.7 1720.28 3
 1 -1 1 55997.6 1723.74 5
 1 -1 1 55372.4 1726.6 6
 -1 -1 -1 52994.6 1728.62 5
 -1 -1 -1 51883 1727.52 7
 -1 -1 -1 52862.8 1728.66 4
 -1 -1 -1 52440.3 1727.89 6
 -1 -1 -1 52213.1 1723.16 3
 -1 -1 -1 52341.8 1728.99 8
 -1 -1 -1 51953.4 1727.22 2
 1 -1 1 51347 1727.75 1
 1 -1 1 54574.9 1726.63 7
 1 -1 1 55139.7 1718.82 8
 1 -1 2 93537.2 2912.01 8
 1 -1 2 89883.2 2906.96 3
 -1 -1 -2 91745.7 2920.35 6
 -1 -1 -2 89196.5 2921.59 5
 1 -1 2 94044.3 2918 5
 1 -1 2 94822.2 2921.08 7
 1 -1 2 93881 2920.91 6
 -1 -1 -2 89469.2 2919.98 7
 1 -1 2 94733.3 2917.8 4
 -1 -1 -2 89776.6 2910.87 1
 -1 -1 -2 89700.7 2920.24 2
 -1 -1 -2 89432.8 2921.7 4
 -1 -1 -2 88479 2921.75 8
 1 -1 2 88279.7 2920.29 1
 -1 -1 -2 88570.9 2911.91 3
 1 -1 3 12401.5 399.737 5
 -1 -1 -3 11277.5 401.798 8
 -1 -1 -3 11655.7 403.131 5
 -1 -1 -3 11116 399.852 6
 -1 -1 -3 11391.1 402.696 4
 -1 -1 -3 12171.9 390.022 3
 -1 -1 -3 11421.1 400.419 7
 1 -1 3 12284.2 399.376 4
 1 -1 3 12338.2 393.53 8
 1 -1 3 11787.2 401.67 1
 -1 -1 -3 12103.4 392.671 1
 1 -1 3 11571.7 383.956 3
 -1 -1 -4 14610 463.822 3
 -1 -1 -4 13599.7 479.221 8
 -1 -1 -4 13382.4 476.881 6
 -1 -1 -4 13162.4 479.63 4
 -1 -1 -4 14737.5 469.989 1
 1 -1 4 14334.8 469.942 8
 1 -1 4 13919.6 478.228 1
 1 -1 4 14191.2 457.82 3
 -1 -1 -4 13517.8 477.064 7
 -1 -1 -4 13712.5 480.729 5
 -1 -1 -5 9458.49 331.077 4
 -1 -1 -5 8215.27 322.54 7
 -1 -1 -5 9247.2 308.531 3
 -1 -1 -5 9448.58 329.244 8
 1 -1 5 9118.03 316.257 8
 -1 -1 -5 9394.56 330.698 5
 -1 -1 -5 8664.63 323.782 6
 1 -1 5 9272.92 327.462 1
 1 -1 6 59.2563 23.7368 1
 -1 -1 -6 41.4267 22.8627 8
 -1 -1 -6 85.8758 22.2857 6
 -1 -1 -6 65.974 21.9173 7
 -1 -1 -6 65.7905 27.5911 4
 -1 -1 -6 52.8605 21.94 5
 -1 -1 -7 35.9491 25.1335 5
 1 -1 7 -4.58429 24.0309 1
 -1 -1 -7 61.3606 25.7491 4
 -1 -1 -7 40.5987 22.4047 7
 -1 -1 -7 28.7594 22.0416 8
 -1 -1 -7 81.671 25.8271 6
 -1 -1 -8 2697.56 137.216 5
 -1 -1 -8 2369.77 126.864 6
 -1 -1 -8 2453.03 127.585 7
 1 -1 8 2609.27 131.224 1
 -1 -1 -8 2691.76 137.012 4
 -1 -1 -8 2707.67 134.266 8
 -1 -1 -9 525.891 56.5653 6
 -1 -1 -9 521.511 57.3206 8
 -1 -1 -9 459.538 55.6924 5
 1 -1 9 500.303 58.2033 1
 -1 -1 -9 615.523 61.0941 7
 -1 -1 -9 650.692 65.9951 4
 -1 -1 -10 566.596 61.7024 7
 -1 -1 -10 489.445 61.0057 4
 -1 -1 -10 612.716 66.9632 8
 -1 -1 -10 446.307 60.2165 5
 -1 -1 -10 511.831 59.882 6
 1 -1 10 542.674 62.0205 1
 -1 -1 -11 689.437 75.9843 4
 -1 -1 -11 575.406 71.2567 5
 -1 -1 -11 589.215 65.7614 8
 1 -1 11 588.867 65.8496 1
 -1 -1 -12 259.226 52.4217 8
 -1 -1 -12 303.838 61.4628 4
 1 -1 12 287.414 52.5438 1
 -1 -1 -12 223.554 53.1674 5
 -1 -1 -13 96.6579 45.2292 5
 -1 -1 -13 96.5958 42.9682 4
 1 0 -14 9.91059 43.9713 5
 -1 0 14 -9.19516 41.5192 1
 1 0 -14 19.6853 42.8829 4
 1 0 -13 182.947 52.1202 4
 -1 0 13 111.221 47.6943 1
 1 0 -13 82.9075 48.3453 5
 1 0 -13 58.9144 40.6685 8
 1 0 -12 4009.08 201.474 8
 -1 0 12 4036.81 202.229 1
 1 0 -12 4122.23 208.044 5
 1 0 -12 4164 209.754 4
 -1 0 11 114.816 39.7035 1
 1 0 -11 137.141 42.6063 5
 1 0 -11 128.618 45.075 4
 1 0 -11 176.705 42.1404 8
 1 0 -10 3494.14 172.17 8
 1 0 -10 3316.57 166.464 6
 1 0 -10 3572.8 169.6 7
 1 0 -10 3793.81 180.945 5
 -1 0 10 3732.11 176.061 1
 1 0 -10 3552.67 177.63 4
 1 0 -9 5508.41 240.428 4
 1 0 -9 5828.81 243.543 5
 -1 0 9 5573.38 238.643 1
 1 0 -9 5923.99 236.224 7
 1 0 -9 5651.82 234.216 6
 1 0 -9 5737.61 239.763 8
 -1 0 8 2780.1 133.938 1
 1 0 -8 2494.47 125.785 6
 1 0 -8 2617.72 133.092 4
 1 0 -8 2765.14 135.081 5
 1 0 -8 2754.56 132.8 8
 1 0 -8 2582.96 126.633 7
 -1 0 7 910.215 62.3951 1
 1 0 -7 914.712 64.8596 5
 1 0 -7 868.867 54.0349 3
 1 0 -7 765.885 59.4956 8
 1 0 -7 711.262 54.5898 7
 1 0 -7 769.109 61.725 4
 -1 0 7 753.983 51.2402 3
 1 0 -7 861.448 58.483 6
 1 0 -6 1440.9 80.6476 7
 1 0 -6 1698.72 88.2717 5
 1 0 -6 1509.94 81.3563 6
 1 0 -6 1841.07 89.4354 8
 -1 0 6 1895.33 90.207 1
 -1 0 6 1710.9 80.5764 3
 1 0 -6 1735.12 88.3678 4
 -1 0 5 22770.9 712.26 6
 1 0 -5 21354.1 719.662 5
 1 0 -5 20476.8 713.232 6
 -1 0 5 22291.7 720.537 1
 1 0 -5 18674.1 714.712 8
 -1 0 5 22441.9 711.71 7
 1 0 -5 20560.7 713.364 7
 -1 0 5 21704 713.135 3
 1 0 -5 23062.8 711.067 3
 1 0 -5 20826.3 718.668 4
 1 0 -4 67.6031 16.6674 6
 1 0 -4 72.6025 18.7864 4
 -1 0 4 73.7879 15.0429 6
 1 0 -4 54.5746 15.5991 7
 1 0 -4 80.3404 19.1886 5
 -1 0 4 82.8155 15.1319 7
 -1 0 4 82.5834 16.5689 3
 -1 0 4 54.1153 16.8989 1
 1 0 -4 68.4709 15.1239 3
 1 0 -4 40.0798 15.3044 8
 -1 0 4 88.2134 17.6792 8
 1 0 -3 517.426 33.7599 5
 1 0 -3 521.053 31.4329 7
 -1 0 3 483.767 33.4974 1
 1 0 -3 492.531 33.6838 8
 -1 0 3 592.568 31.7153 6
 -1 0 3 507.715 30.0968 7
 1 0 -3 515.448 33.6992 4
 -1 0 3 603.015 34.6848 8
 1 0 -3 516.196 31.3412 6
 1 0 -3 565.965 32.271 3
 -1 0 3 504.671 32.1074 3
 1 0 -2 6628.88 231.561 7
 -1 0 2 7135.87 231.686 6
 -1 0 2 7086.81 234.655 3
 1 0 -2 6915.91 235.323 8
 -1 0 2 7362.66 235.125 1
 1 0 -2 6798.73 231.764 6
 1 0 -2 6471.73 233.608 4
 1 0 -2 6450.54 233.516 5
 -1 0 2 7130.68 231.593 7
 -1 0 1 17607.7 540.149 1
 -1 0 1 16985.1 539.276 6
 1 0 -1 15811.9 539.087 6
 -1 0 1 17167.4 541.137 3
 1 0 -1 16277.5 540.604 4
 1 0 -1 15732.3 539.248 7
 1 0 -1 16201.4 540.433 5
 1 0 -1 16801.2 539.247 1
 -1 0 1 17040.7 539.525 7
 1 0 -1 16630.1 541.334 8
 1 0 0 27936 923.22 5
 -1 0 0 28294.5 920.688 1
 1 0 0 28444.4 922.789 8
 -1 0 0 29450.2 924.384 7
 1 0 0 27704.4 920.833 3
 -1 0 0 29968.8 924.061 2
 1 0 0 29394.4 924.012 6
 1 0 0 29636 923.924 7
 1 0 0 28405.8 920.628 1
 -1 0 0 28639.9 923.779 4
 -1 0 0 29795.1 924.506 6
 1 0 0 28489.1 923.392 4
 -1 0 0 28146 923.539 5
 -1 0 0 28119.8 921.111 3
 1 0 1 344.04 20.8188 5
 -1 0 -1 349.445 20.2316 8
 1 0 1 343.688 19.4703 8
 1 0 1 302.911 17.4805 1
 -1 0 -1 373.143 18.3884 1
 1 0 1 305.452 19.937 4
 -1 0 -1 323.406 21.8401 6
 -1 0 -1 326.055 21.9222 7
 -1 0 -1 310.098 21.1298 5
 -1 0 -1 322.308 21.3872 4
 -1 0 -2 15312.7 515.979 5
 1 0 2 15873 514.889 4
 -1 0 -2 15163.6 513.008 8
 1 0 2 15159.1 510.828 1
 -1 0 -2 15476.3 516.326 7
 -1 0 -2 15900 516.91 6
 1 0 2 15833.4 512.476 8
 -1 0 -2 15724.5 510.548 1
 1 0 2 15802.2 515.137 5
 -1 0 -2 15742.1 516.499 4
 -1 0 -3 1253.19 58.4716 8
 1 0 3 1342.87 60.1445 4
 -1 0 -3 1289.04 45.5252 3
 1 0 3 1329.78 60.1194 7
 -1 0 -3 1233.77 61.2563 6
 1 0 3 1322.67 60.2257 5
 -1 0 -3 1359.1 62.7632 5
 -1 0 -3 1289.55 61.8973 4
 1 0 3 1280.66 56.8905 8
 -1 0 -3 1431.35 57.5375 1
 1 0 3 1331.82 60.1336 6
 -1 0 -3 1223.4 60.8619 7
 1 0 3 1342.47 58.2298 1
 -1 0 -4 29145.6 980.828 6
 -1 0 -4 29403.4 981.942 4
 1 0 4 31096 978.117 7
 -1 0 -4 29646.8 959.743 3
 -1 0 -4 30428.3 973.937 1
 1 0 4 29330.5 975.823 1
 -1 0 -4 29136.9 980.885 7
 1 0 4 30742.2 975.076 8
 -1 0 -4 30436.7 983.33 5
 -1 0 -4 29542.7 977.456 8
 1 0 4 31843.4 978.632 6
 -1 0 -4 28678 959.085 3
 -1 0 -5 12149.6 400.047 4
 -1 0 -5 11155.5 396.266 7
 1 0 5 10384.1 388.549 1
 -1 0 -5 10634.4 390.096 8
 -1 0 -5 12372.1 400.85 5
 -1 0 -5 11183.8 396.397 6
 -1 0 -6 3190.65 145.987 5
 1 0 6 3234.38 140.197 1
 -1 0 -6 3263.51 144.924 6
 -1 0 -6 3263.48 146.346 4
 -1 0 -6 3336.07 141.833 8
 -1 0 -6 3414.31 145.994 7
 -1 0 -7 507.824 51.3958 4
 -1 0 -7 577.881 53.3197 5
 1 0 7 515.667 48.3933 1
 -1 0 -7 507.884 49.6342 7
 -1 0 -7 504.534 49.7565 6
 -1 0 -7 525.965 47.2873 8
 -1 0 -8 55.3248 24.9605 8
 -1 0 -8 5.79265 28.7444 4
 -1 0 -8 16.2589 24.4832 7
 -1 0 -8 16.3208 25.815 6
 -1 0 -8 23.3071 28.0759 5
 1 0 8 24.975 20.9548 1
 -1 0 -9 1792.82 113.028 7
 -1 0 -9 1955.99 118.938 4
 -1 0 -9 2007.11 119.955 5
 -1 0 -9 2101.54 114.78 8
 -1 0 -9 1916.13 114.49 6
 1 0 9 2033.57 113.156 1
 -1 0 -10 31.8054 28.2422 8
 -1 0 -10 66.4988 33.9492 5
 1 0 10 31.6087 28.564 1
 -1 0 -10 -7.3561 30.8573 4
 -1 0 -10 68.1332 35.6918 6
 -1 0 -10 40.6566 30.0824 7
 -1 0 -11 212.454 53.2062 5
 -1 0 -11 219.651 53.8475 4
 -1 0 -11 315.618 54.765 6
 -1 0 -11 238.661 47.8576 7
 -1 0 -12 8.13253 37.3487 6
 -1 0 -12 -8.91119 32.5688 4
 -1 0 -12 8.93909 30.9035 5
 -1 0 -13 96.6299 47.9562 4
 -1 0 -13 9.67846 41.4061 5
 1 1 -14 455.213 73.2434 4
 1 1 -14 588.025 80.9622 5
 -1 1 13 1491.67 111.717 1
 1 1 -13 1285.22 111.905 4
 1 1 -13 1542.65 120.718 5
 1 1 -12 319.689 60.1912 4
 1 1 -12 288.016 58.4789 5
 1 1 -12 340.648 55.7823 7
 1 1 -12 264.239 54.5463 6
 -1 1 12 279.547 54.5232 1
 -1 1 11 1162.16 90.2994 1
 1 1 -11 1181 95.0619 5
 1 1 -11 1057.87 87.6975 6
 1 1 -11 1211.99 93.0388 7
 1 1 -11 1051.46 89.8899 4
 1 1 -11 1143.21 88.1935 8
 1 1 -10 5644.31 244.579 8
 1 1 -10 5585.97 251.755 5
 -1 1 10 5835.88 250.171 1
 1 1 -10 5680.46 252.601 4
 1 1 -10 6248.35 252.887 7
 1 1 -10 6067.24 250.93 6
 1 1 -9 2336.64 123.921 8
 1 1 -9 2490.91 132.692 5
 1 1 -9 2444.74 126.902 6
 -1 1 9 2214.09 123.138 1
 1 1 -9 2206.97 127.288 4
 1 1 -9 2371.6 126.093 7
 1 1 -8 1318.33 82.5689 7
 1 1 -8 1215.13 78.9648 8
 -1 1 8 1245.84 81.5117 1
 1 1 -8 1261.38 84.7848 4
 1 1 -8 1219.62 80.4753 6
 1 1 -8 1396.69 88.1549 5
 1 1 -7 1499.01 87.3283 5
 1 1 -7 1362.37 84.6642 4
 1 1 -7 1340.83 80.9662 7
 1 1 -7 1285.76 79.3658 6
 -1 1 7 1415.64 82.2659 1
 1 1 -7 1380.91 80.1988 8
 1 1 -6 1663.88 88.7292 5
 -1 1 6 1703.85 86.9389 1
 1 1 -6 1782.83 88.6421 6
 1 1 -6 1580.8 84.5942 8
 1 1 -6 1640.58 86.5515 7
 1 1 -6 1717 89.879 4
 -1 1 5 1017.98 51.1896 7
 -1 1 5 1097.67 52.3407 6
 1 1 -5 977.536 59.7194 4
 1 1 -5 957.653 58.1361 7
 1 1 -5 1003.61 52.1899 3
 1 1 -5 1076.31 61.04 6
 1 1 -5 1050.31 58.7427 8
 1 1 -5 960.686 59.8464 5
 -1 1 5 1019.11 59.3541 1
 -1 1 4 8442.1 275.759 4
 -1 1 4 8075.06 268.732 6
 -1 1 4 7900.38 279.558 1
 1 1 -4 7218.35 277.243 6
 1 1 -4 7219.39 277.904 5
 -1 1 4 8034.18 268.567 7
 1 1 -4 7476.08 278.994 4
 1 1 -4 7407.71 277.722 7
 1 1 -4 8245.64 276.863 1
 1 1 -4 7526.82 276.493 8
 1 1 -4 8258.2 272.806 3
 -1 1 4 8270.03 275.247 5
 1 1 -3 1986.6 84.7202 5
 -1 1 3 2152.73 81.1527 5
 -1 1 3 1989.56 75.1405 6
 1 1 -3 2153.95 82.945 1
 1 1 -3 1846.53 83.1937 6
 -1 1 3 2032.95 75.1952 7
 1 1 -3 1934.29 84.1949 7
 1 1 -3 1981.56 80.4886 3
 1 1 -3 1932.01 82.6727 8
 1 1 -3 1900.5 84.0274 4
 -1 1 3 1959.51 79.9337 4
 -1 1 3 2043.32 85.1727 1
 -1 1 2 20505.3 655.946 5
 1 1 -2 19459.6 660.728 5
 -1 1 2 20300.9 650.581 6
 1 1 -2 19853.1 661.07 4
 1 1 -2 20191.7 660.617 8
 1 1 -2 20623.6 657.866 1
 -1 1 2 20017.1 655.749 4
 1 1 -2 19622.5 661.825 6
 1 1 -2 19327.2 661.732 7
 1 1 -2 20576.3 659.203 3
 -1 1 2 19749.9 660.006 3
 -1 1 2 20479.3 662.384 1
 -1 1 2 20561.5 659.289 8
 -1 1 2 20326.6 650.439 7
 1 1 -1 3981.71 139.391 5
 1 1 -1 3996.08 140.12 7
 1 1 -1 3808.73 133.192 1
 -1 1 1 3915.26 132.235 5
 1 1 -1 3945.55 139.917 6
 -1 1 1 4030.78 139.85 1
 -1 1 1 3998.92 135.134 8
 1 1 -1 4026.76 139.561 4
 -1 1 1 3834.09 132.24 4
 -1 1 0 11371.3 362.321 5
 -1 1 0 11495.6 362.517 4
 -1 1 0 10594.6 364.22 6
 -1 1 0 11008.3 364.508 7
 1 1 0 11221.7 367.218 3
 -1 1 0 11071 366.035 3
 1 1 0 11398.6 370.524 7
 1 1 0 11085.6 369.941 6
 1 1 1 54052.1 1778.01 2
 1 1 1 53728.8 1773.77 3
 -1 1 -1 56790.1 1771.21 3
 -1 1 -1 55221.8 1778.45 7
 -1 1 -1 56058.1 1774.83 4
 -1 1 -1 54987 1778.31 6
 -1 1 -1 55971.1 1774.82 5
 -1 1 -1 55925.6 1778.32 1
 -1 1 -1 54511.2 1769.8 8
 1 1 1 55481 1778.02 6
 1 1 1 55132.5 1778.11 7
 -1 1 -2 91192.1 2911.09 3
 -1 1 -2 92748.9 2916.71 8
 1 1 2 90934.2 2915.79 3
 -1 1 -2 93222.6 2926.43 6
 -1 1 -2 86150.5 2922.07 4
 1 1 2 94470 2923.23 7
 1 1 2 90841.5 2924.18 8
 -1 1 -2 87911 2922.66 5
 1 1 2 94479.5 2923.41 6
 -1 1 -2 89418.3 2923.08 1
 1 1 2 88983.3 2915.81 1
 -1 1 -2 93391.3 2926.56 7
 -1 1 -3 11568.1 411.004 7
 -1 1 -3 11994.6 401.949 8
 -1 1 -3 12193.2 391.586 3
 1 1 3 11920.2 405.907 7
 -1 1 -3 12564.6 409.889 4
 1 1 3 12074.4 397.141 3
 -1 1 -3 12359.7 409.457 5
 1 1 3 11990.9 406.16 6
 -1 1 -3 11566.7 410.533 6
 -1 1 -3 12297.6 407.359 1
 1 1 3 12285.2 408.481 8
 1 1 3 11725.4 401.579 1
 -1 1 -4 13820.4 469.594 8
 -1 1 -4 14660.6 474.304 1
 1 1 4 14369.7 472.222 7
 1 1 4 13918.2 461.014 3
 -1 1 -4 12890.9 477.17 7
 -1 1 -4 13381 478.492 6
 1 1 4 14547 472.665 6
 1 1 4 13682 469.559 1
 -1 1 -4 14187.7 455.007 3
 -1 1 -4 13737.9 476.952 4
 -1 1 -4 14026.3 478.227 5
 -1 1 -5 9714.96 331.694 5
 1 1 5 8622.35 319.992 1
 -1 1 -5 9511.05 330.424 4
 -1 1 -5 9254.88 330.83 6
 -1 1 -5 9424.24 331.729 7
 -1 1 -5 8666.44 319.207 8
 -1 1 -6 73.488 25.4292 6
 -1 1 -6 29.6174 22.5018 4
 -1 1 -6 53.4163 20.45 8
 -1 1 -6 85.2359 27.0323 5
 1 1 6 40.6179 17.8056 1
 -1 1 -6 60.6942 23.6193 7
 -1 1 -7 45.0422 26.5507 5
 -1 1 -7 30.0602 24.8639 7
 1 1 7 16.0921 18.7967 1
 -1 1 -7 34.7809 28.5716 4
 -1 1 -7 4.99561 25.4902 6
 -1 1 -7 23.8839 17.9901 8
 -1 1 -8 2637.69 134.318 5
 1 1 8 2515.56 123.658 1
 -1 1 -8 2309.06 120.921 8
 -1 1 -8 2317.97 128.029 6
 -1 1 -8 2687.79 134.648 4
 -1 1 -8 2559.17 131.869 7
 -1 1 -9 557.568 59.7031 5
 -1 1 -9 520.465 60.2462 4
 1 1 9 444.343 52.5894 1
 -1 1 -9 486.287 58.5941 7
 -1 1 -9 582.852 63.1477 6
 -1 1 -10 631.242 69.7877 5
 -1 1 -10 732.094 72.8326 7
 -1 1 -10 561.83 67.2197 4
 -1 1 -10 719.853 72.5255 6
 -1 1 -11 666.418 75.8473 5
 -1 1 -11 491.161 67.4836 7
 -1 1 -11 605.92 71.6839 4
 -1 1 -11 665.015 75.5147 6
 -1 1 -12 265.497 54.8649 4
 -1 1 -12 302.253 55.1092 5
 -1 1 -12 195.518 52.2435 6
 -1 1 -13 9.08671 41.0713 7
 -1 1 -13 76.9522 37.8751 5
 -1 1 -13 115.06 45.5164 4
 -1 1 -13 36.6083 43.449 6
 1 2 -14 9.90479 43.9465 4
 1 2 -14 9.96716 46.5319 5
 1 2 -13 277.227 55.7074 7
 1 2 -13 190.067 45.7103 6
 1 2 -13 156.247 51.5367 4
 1 2 -13 212.869 53.6032 5
 1 2 -12 64.2392 37.5268 6
 1 2 -12 42.1945 35.4211 4
 1 2 -12 16.999 35.6748 5
 -1 2 12 69.4537 36.068 1
 1 2 -12 88.5464 41.6422 7
 1 2 -11 664.124 72.8057 5
 1 2 -11 751.95 77.3576 4
 -1 2 11 642.99 71.2551 1
 1 2 -11 749.693 76.5726 6
 1 2 -11 637.869 72.6297 7
 1 2 -10 1063.23 88.6026 5
 -1 2 10 1120.04 86.6068 1
 1 2 -10 1262.44 91.6162 7
 1 2 -10 1075.43 85.031 6
 1 2 -10 1098.68 90.0727 4
 -1 2 9 423.444 51.9967 1
 1 2 -9 477.353 56.2722 7
 1 2 -9 541.188 53.3353 8
 1 2 -9 474.828 57.3676 4
 1 2 -9 379.728 54.1644 6
 1 2 -9 483.105 59.4847 5
 1 2 -8 5072.33 206.12 8
 -1 2 8 4991.74 209.302 1
 1 2 -8 5008.73 214.122 4
 1 2 -8 4654.23 209.725 7
 1 2 -8 4999.58 213.327 6
 1 2 -8 4977.92 213.587 5
 1 2 -7 5437.82 219.172 8
 1 2 -7 5543.87 227.742 7
 1 2 -7 5899.77 229.938 5
 1 2 -7 5409.97 226.153 4
 1 2 -7 5462.42 227.148 6
 -1 2 7 5898.94 226.376 1
 1 2 -6 8899.49 325.239 5
 1 2 -6 8892.99 324.986 4
 1 2 -6 8813.5 318.321 8
 -1 2 6 9098.98 323.267 1
 1 2 -6 8414.07 324.201 6
 1 2 -6 8752.13 325.373 7
 1 2 -5 12561.7 434.548 5
 -1 2 5 11791.5 431.139 1
 1 2 -5 13090 437.303 7
 1 2 -5 12244.4 421.976 3
 1 2 -5 13049 437.319 6
 1 2 -5 13123.9 436.249 4
 1 2 -5 11585 425.622 8
 1 2 -4 6374.37 240.665 8
 -1 2 4 6835.5 242.331 3
 1 2 -4 6433.13 246.465 7
 -1 2 4 6753.29 237.811 4
 -1 2 4 6799.89 228.976 7
 -1 2 4 6742.51 246.444 1
 1 2 -4 6672.81 246.864 4
 1 2 -4 6631.22 246.387 5
 -1 2 4 7184.2 229.86 6
 1 2 -4 6381.23 246.418 6
 1 2 -4 6853.39 239.208 3
 -1 2 4 6886.4 238.14 5
 -1 2 3 2543.73 105.591 1
 1 2 -3 2344.1 105.07 7
 1 2 -3 2468.35 103.018 5
 -1 2 3 2557.49 95.785 5
 -1 2 3 2361.37 101.038 3
 -1 2 3 2578.62 100.905 8
 1 2 -3 2621.52 104.299 4
 1 2 -3 2600.47 100.334 3
 1 2 -3 2369.11 105.06 6
 1 2 -3 2579.56 100.473 1
 -1 2 3 2559.63 87.4816 6
 1 2 -3 2493.85 100.341 8
 -1 2 3 2407.19 86.9699 7
 -1 2 3 2519.55 95.6267 4
 1 2 -2 9914.73 328.43 3
 -1 2 2 9726.99 318.884 5
 -1 2 2 9798.71 325.353 8
 -1 2 2 9565.39 331.315 1
 1 2 -2 9328.73 331.399 6
 1 2 -2 9516.24 328.666 5
 -1 2 2 9728.14 319.016 4
 1 2 -2 9785 329.305 4
 1 2 -2 9272.44 331.289 7
 1 2 -2 9682.61 325.152 1
 1 2 -1 5209.39 177.065 4
 1 2 -1 4858.44 177.973 5
 -1 2 1 5067.44 181.212 1
 1 2 -1 5235.67 177.082 5
 1 2 -1 4845.1 179.938 6
 1 2 -1 5081.1 172.649 1
 -1 2 1 4952.41 171.611 8
 1 2 -1 4885.28 178.3 4
 1 2 -1 5231.58 176.708 8
 1 2 -1 4968.68 180.213 7
 1 2 0 14416.7 452.153 5
 -1 2 0 13378.5 445.764 6
 1 2 0 13679 453.702 3
 1 2 0 13880.5 455.537 7
 1 2 0 14298.7 452.375 4
 1 2 0 13619.6 454.842 6
 -1 2 0 13593.4 445.954 7
 1 2 0 13104.6 443.577 1
 -1 2 0 13954 452.506 3
 1 2 0 13688.7 452.52 8
 1 2 1 5525.93 192.533 5
 -1 2 -1 5493.03 184.957 5
 1 2 1 5742.46 193.439 3
 1 2 1 5725.43 192.257 7
 -1 2 -1 5762.44 190.377 3
 -1 2 -1 5377 184.67 4
 1 2 1 5504.56 182.764 1
 -1 2 -1 5133.37 190.748 6
 1 2 1 5638.9 194.864 8
 1 2 1 5564.95 191.325 2
 1 2 1 5663.68 192.96 4
 -1 2 -1 5094.7 190.697 7
 1 2 1 5572.94 192.232 6
 1 2 2 7414.94 261.251 5
 1 2 2 7606.79 259.348 3
 -1 2 -2 7589.37 257.84 5
 1 2 2 7514.31 261.52 4
 -1 2 -2 7253.12 263.196 6
 -1 2 -2 7909.11 255.326 3
 -1 2 -2 7421.97 263.873 7
 1 2 2 7885.59 260.371 2
 1 2 2 6943.05 252.039 1
 1 2 2 7716.34 259.981 7
 -1 2 -2 7763.28 248.483 8
 -1 2 -2 7662.37 257.793 4
 1 2 2 7683.71 259.719 6
 -1 2 -3 8067.8 291.096 6
 1 2 3 8139.32 287.183 5
 -1 2 -3 8597.09 276.923 3
 -1 2 -3 8388.17 286.203 4
 1 2 3 8355.45 287.712 4
 -1 2 -3 8211.14 291.782 7
 -1 2 -3 8369.03 276.15 8
 -1 2 -3 8150.19 285.7 5
 1 2 3 8255.12 284.125 7
 1 2 3 7880.17 278.942 1
 1 2 3 8156.98 281.7 3
 1 2 3 8127.37 284.129 6
 -1 2 -4 815.496 48.9115 5
 1 2 4 727.004 43.9703 6
 -1 2 -4 823.262 49.6779 4
 1 2 4 756.602 44.4562 7
 -1 2 -4 808.627 37.8514 3
 -1 2 -4 735.027 40.3116 8
 -1 2 -4 760.61 51.1149 7
 -1 2 -4 749.011 51.2517 6
 1 2 4 736.11 42.8109 1
 1 2 4 803.361 42.5128 3
 -1 2 -5 2483.42 110.391 5
 -1 2 -5 2564.47 115.036 6
 -1 2 -5 2500.27 110.545 4
 -1 2 -5 2204.89 97.6798 8
 -1 2 -5 2601.1 116.02 7
 1 2 5 2141.71 99.6196 1
 -1 2 -6 1252.91 77.0183 6
 -1 2 -6 1114.86 62.0431 8
 -1 2 -6 1215.48 74.1489 4
 -1 2 -6 1192.86 75.8661 7
 1 2 6 1010.03 63.496 1
 -1 2 -6 1240.86 73.8724 5
 -1 2 -7 59.4702 28.2851 5
 -1 2 -7 68.9797 27.1689 7
 1 2 7 77.13 23.4411 1
 -1 2 -7 105.729 29.8313 6
 -1 2 -7 68.9372 26.2226 4
 -1 2 -8 486.983 54.4498 5
 -1 2 -8 540.317 58.7315 4
 -1 2 -8 546.398 59.1998 7
 -1 2 -8 663.787 62.9007 6
 -1 2 -9 1117.35 88.7735 7
 -1 2 -9 1218.61 88.9142 4
 -1 2 -9 1261.66 92.4069 6
 -1 2 -9 1175.37 89.1016 5
 -1 2 -10 977.148 85.2213 4
 -1 2 -10 899.572 82.4565 6
 -1 2 -10 826.089 81.104 7
 -1 2 -10 970.704 84.9721 5
 -1 2 -11 -8.13951 38.0162 7
 -1 2 -11 56.5359 39.5039 5
 -1 2 -11 57.0306 36.1659 6
 -1 2 -11 48.0483 36.1773 4
 -1 2 -12 767.852 83.8686 7
 -1 2 -12 715.39 83.9227 5
 -1 2 -12 522.005 75.4349 6
 -1 2 -12 728.666 84.1002 4
 -1 2 -13 434.732 72.236 7
 -1 2 -13 534.666 76.3741 5
 -1 2 -13 446.695 70.8541 4
 -1 2 -13 626.661 80.8217 6
 1 3 -14 38.7713 43.0152 7
 1 3 -14 19.9136 46.4919 5
 1 3 -14 9.66228 36.2435 6
 1 3 -14 59.3633 45.4474 4
 1 3 -13 -18.2261 42.5489 6
 1 3 -13 9.18176 40.0092 4
 1 3 -13 54.8396 44.6912 7
 1 3 -13 73.9854 45.2204 5
 1 3 -12 648.042 78.7382 6
 1 3 -12 674.207 80.7282 7
 1 3 -12 533.38 73.9065 4
 1 3 -12 579.651 75.0614 5
 1 3 -11 244.854 51.4777 7
 1 3 -11 245.28 50.7043 6
 1 3 -11 250.176 55.4088 5
 1 3 -11 248.687 52.3183 4
 1 3 -10 1928.98 121.28 4
 -1 3 10 1951.77 117.542 1
 1 3 -10 1965.51 124.243 7
 1 3 -10 1946.22 123.913 6
 1 3 -10 1989.46 122.936 5
 1 3 -9 4595.63 207.691 5
 1 3 -9 4703.74 211.437 7
 -1 3 9 4540.81 202.193 1
 1 3 -9 4606.14 209.795 6
 1 3 -9 4399.5 205.278 4
 -1 3 8 496.18 54.7652 1
 1 3 -8 478.742 53.1763 4
 1 3 -8 407.135 50.3368 5
 1 3 -8 472.515 55.9991 6
 1 3 -8 471.635 56.5704 7
 1 3 -7 343.688 45.5941 7
 1 3 -7 443.202 41.5362 8
 1 3 -7 420.154 49.0188 5
 -1 3 7 432.037 47.0749 1
 1 3 -7 370.765 47.571 6
 1 3 -7 310.209 44.4573 4
 1 3 -6 1116.44 71.3511 4
 -1 3 6 1047.96 68.1305 1
 1 3 -6 1143.8 74.9314 7
 1 3 -6 1186.96 74.912 6
 1 3 -6 1030.82 62.2442 8
 1 3 -6 1043.3 69.1668 5
 -1 3 5 453.699 41.976 1
 1 3 -5 489.489 45.3655 7
 1 3 -5 481.893 42.4232 5
 1 3 -5 416.431 35.1107 8
 1 3 -5 507.765 45.6517 6
 1 3 -5 486.401 42.3818 4
 1 3 -4 39.5782 14.3829 8
 -1 3 4 7.94774 11.1929 4
 -1 3 4 19.8765 12.5977 5
 1 3 -4 9.12002 16.5307 4
 1 3 -4 21.2125 18.9911 7
 1 3 -4 28.4061 22.0883 6
 -1 3 4 25.2699 17.7775 1
 1 3 -4 15.1608 17.625 5
 1 3 -3 1213.89 62.0759 8
 -1 3 3 1340.56 56.8879 5
 1 3 -3 1280.65 65.0584 5
 -1 3 3 1195.13 66.6114 1
 1 3 -3 1282.55 65.5219 4
 1 3 -3 1418.02 71.3388 7
 -1 3 3 1271.98 62.5148 8
 1 3 -3 1350.61 65.1039 3
 1 3 -3 1360.48 64.5723 1
 1 3 -3 1310.91 69.2997 6
 -1 3 3 1373.69 57.0213 4
 -1 3 2 6059.69 197.601 5
 -1 3 2 5473.44 214.334 1
 1 3 -2 5678.45 215.485 7
 -1 3 2 6083.04 207.027 8
 -1 3 2 6038.27 197.561 4
 1 3 -2 5633.46 214.919 6
 1 3 -2 5891.76 208.029 1
 1 3 -2 5872.42 212.286 3
 1 3 -2 5813.6 210.504 5
 1 3 -2 5563.26 209.622 4
 1 3 -1 19182 651.824 6
 -1 3 1 20638.2 652.354 3
 1 3 -1 19637.8 648.711 5
 1 3 -1 19183 651.478 7
 -1 3 1 19965 640.519 8
 1 3 -1 20170.3 644.097 1
 -1 3 1 18924.5 633.432 6
 -1 3 1 19113.4 633.582 7
 1 3 -1 20185.2 646.064 4
 1 3 -1 19838.7 649.155 4
 1 3 -1 20587.7 646.516 8
 1 3 -1 20301.1 646.14 5
 1 3 0 7911.11 275.97 3
 -1 3 0 8154.46 274.763 3
 1 3 0 8262.69 271.095 4
 1 3 0 7797.91 274.738 6
 -1 3 0 7641.93 264.825 6
 -1 3 0 8016.99 260.079 8
 1 3 0 7945.22 272.717 8
 1 3 0 7573.11 265.356 1
 1 3 0 7731.53 274.73 7
 1 3 0 8275.35 270.667 5
 -1 3 0 7593.49 264.833 7
 -1 3 0 8177.68 275.957 1
 -1 3 -1 482.014 23.0574 5
 1 3 1 513.162 33.2044 8
 1 3 1 515.424 34.7343 3
 -1 3 -1 468.151 30.4423 7
 1 3 1 462.54 32.4218 6
 -1 3 -1 537.716 35.6124 1
 -1 3 -1 461.036 30.4453 6
 1 3 1 415.514 32.0827 7
 -1 3 -1 503.887 23.172 4
 -1 3 -1 502.511 32.5156 3
 1 3 1 436.84 30.1816 5
 1 3 1 419.049 30.2504 7
 1 3 1 441.604 30.2441 6
 1 3 1 433.075 30.291 4
 1 3 1 452.62 29.8385 2
 1 3 2 1409.72 62.4176 6
 1 3 2 1312.06 57.3248 1
 -1 3 -2 1532.47 63.8732 3
 1 3 2 1406.07 65.707 3
 -1 3 -2 1444.2 58.8276 4
 1 3 2 1476.76 67.3404 8
 1 3 2 1389.96 63.3737 4
 1 3 2 1285.22 60.9652 7
 -1 3 -2 1166.18 63.74 6
 1 3 2 1429.49 62.4263 2
 1 3 2 1413.31 63.7512 5
 -1 3 -2 1380.01 66.7921 7
 -1 3 -2 1305.64 57.6058 5
 1 3 3 6234.16 221.812 4
 1 3 3 6454.21 222.887 5
 -1 3 -3 6138.41 218.646 5
 -1 3 -3 6641.93 217.388 3
 -1 3 -3 5660.22 225.701 7
 1 3 3 6290.36 221.411 3
 1 3 3 5814.45 214.443 1
 1 3 3 5942.29 217.087 6
 1 3 3 6145.12 217.918 7
 -1 3 -3 5890.7 226.643 6
 -1 3 -3 6198.22 205.989 8
 -1 3 -3 6292.43 219.139 4
 -1 3 -4 754.603 46.6604 5
 1 3 4 577.289 39.5979 1
 1 3 4 781.033 43.8242 7
 -1 3 -4 697.139 44.897 4
 -1 3 -4 737.481 52.0199 7
 -1 3 -4 642.327 49.8909 6
 1 3 4 689.999 41.9101 6
 1 3 5 4094.99 168.171 1
 -1 3 -5 4851 180.091 4
 -1 3 -5 4729 179.328 5
 -1 3 -5 4226.53 183.539 7
 -1 3 -5 4474.36 185.376 6
 -1 3 -6 218.06 38.9078 6
 -1 3 -6 242.234 34.9763 5
 -1 3 -6 203.6 37.3947 7
 -1 3 -6 190.716 32.3903 4
 -1 3 -7 2539.62 129.766 5
 -1 3 -7 2866.01 139.303 7
 -1 3 -7 2758.88 137.748 6
 -1 3 -7 2565.36 130.014 4
 -1 3 -8 3122.73 150.759 4
 -1 3 -8 2887.32 147.542 5
 -1 3 -8 2841.53 152.181 6
 -1 3 -8 3265.82 159.546 7
 -1 3 -9 1014.31 81.1221 5
 -1 3 -9 953.957 83.6438 7
 -1 3 -9 893.935 80.8138 6
 -1 3 -9 878.607 78.4257 4
 -1 3 -10 1502.4 107.01 5
 -1 3 -10 1571.29 112.305 6
 -1 3 -10 1497.63 111.986 7
 -1 3 -10 1469.65 105.519 4
 -1 3 -11 93.5199 42.7778 7
 -1 3 -11 -16.0259 39.1832 5
 -1 3 -11 7.94615 33.9812 4
 -1 3 -11 59.4391 43.314 6
 -1 3 -12 238.749 52.2477 6
 -1 3 -12 201.191 55.9327 5
 -1 3 -12 302.85 58.6279 7
 -1 3 -12 252.063 56.9997 4
 -1 3 -13 785.23 93.7586 7
 -1 3 -13 864.969 95.1441 4
 -1 3 -13 708.609 90.1725 5
 -1 3 -13 885.235 97.8415 6
 1 4 -13 -9.23599 42.4171 5
 1 4 -13 64.1838 46.129 4
 1 4 -13 -9.57031 37.6389 6
 1 4 -13 9.6008 36.8907 7
 1 4 -12 239.124 54.97 5
 1 4 -12 229.052 50.7696 4
 1 4 -12 171.299 48.8947 7
 1 4 -12 234.448 52.2921 6
 1 4 -11 159.098 48.476 7
 1 4 -11 148.479 46.226 4
 1 4 -11 306.617 54.6628 5
 1 4 -11 142.512 45.3733 6
 1 4 -10 178.5 46.9109 7
 1 4 -10 264.492 49.4777 4
 1 4 -10 170.742 49.1167 6
 1 4 -10 193.909 44.7122 5
 1 4 -9 156.714 40.2317 7
 1 4 -9 121.194 39.8175 6
 1 4 -9 51.7376 35.3307 5
 1 4 -9 167.49 42.3433 4
 -1 4 9 102.548 33.7473 1
 -1 4 8 273.077 42.3333 1
 1 4 -8 219.288 43.4247 7
 1 4 -8 292.69 45.6842 4
 1 4 -8 247.775 42.4253 5
 1 4 -8 310.1 46.4311 6
 1 4 -7 5960.47 241.241 5
 -1 4 7 5749.8 238.337 1
 1 4 -7 5999.24 247.411 7
 1 4 -7 6121.18 242.205 4
 1 4 -7 5752.81 245.749 6
 1 4 -6 665.78 52.9792 5
 1 4 -6 444.561 51.88 7
 1 4 -6 513.979 54.2185 6
 1 4 -6 594.131 51.4563 4
 -1 4 6 522.756 50.8164 1
 -1 4 5 1224.87 72.9468 1
 1 4 -5 1314.16 80.0682 6
 1 4 -5 1272.05 73.1 4
 1 4 -5 1217.89 77.6038 7
 1 4 -5 1180.52 70.9544 5
 1 4 -5 1180 64.4539 8
 -1 4 4 3806.69 164.643 1
 1 4 -4 4254.06 164.205 4
 1 4 -4 4094.42 169.952 6
 1 4 -4 4166.69 171.01 7
 1 4 -4 4200.49 163.612 5
 1 4 -4 3878.51 156.272 8
 1 4 -3 9254.58 322.593 5
 -1 4 3 9081.62 327.333 1
 1 4 -3 8492.3 317.838 8
 1 4 -3 9067.13 322.314 4
 1 4 -3 9661.5 332.296 7
 1 4 -3 9742.27 332.113 6
 1 4 -2 3260.58 130.523 5
 1 4 -2 3527.04 129.06 4
 1 4 -2 3210.84 136.455 6
 -1 4 2 3227.32 136.828 1
 1 4 -2 3275.64 136.862 7
 1 4 -2 3371.98 128.498 5
 1 4 -2 3432.82 130.37 1
 1 4 -2 3200.22 130.216 4
 -1 4 2 3242.06 126.021 8
 1 4 -2 3310.7 126.725 8
 -1 4 1 25290.2 831.155 7
 1 4 -1 25154.4 845.07 5
 1 4 -1 25231.8 850.438 7
 1 4 -1 25525.3 845.704 4
 1 4 -1 26156.2 842.264 1
 1 4 -1 26705.2 842.12 5
 1 4 -1 27156.6 842.627 4
 -1 4 1 26193.8 836.93 8
 1 4 -1 24979.8 849.997 6
 -1 4 1 24859.9 830.938 6
 1 4 -1 25995.8 843.182 8
 1 4 0 5399.4 193.129 5
 -1 4 0 5309.44 189.173 6
 1 4 0 5539.34 193.45 4
 -1 4 0 5239.97 189.014 7
 1 4 0 5802.72 197.698 8
 1 4 0 4980.75 197.353 6
 1 4 0 5437.19 199.333 7
 1 4 0 5559.47 191.801 1
 1 4 1 5768.08 214.769 7
 1 4 1 6201.59 212.365 7
 1 4 1 6140.08 211.891 6
 -1 4 -1 5539.04 211.082 7
 -1 4 -1 5781.11 198.191 5
 1 4 1 6139.74 211.193 5
 -1 4 -1 5857.6 198.216 4
 1 4 1 5786.25 214.826 6
 1 4 1 6197.72 211.327 2
 -1 4 -1 5698.62 211.636 6
 1 4 1 6488.39 212.471 4
 1 4 2 13837.2 452.145 5
 1 4 2 12490.1 454.114 7
 1 4 2 13899.8 451.712 6
 -1 4 -2 12995.7 457.211 6
 1 4 2 12603.1 453.505 6
 -1 4 -2 13308.2 443.499 5
 1 4 2 13689.4 450.277 2
 -1 4 -2 12962.4 457.422 7
 1 4 2 13589.8 451.689 4
 -1 4 -2 13634.7 443.748 4
 1 4 2 13880.7 451.014 7
 -1 4 -3 10584.3 370.08 5
 -1 4 -3 11094.4 384.789 7
 -1 4 -3 10563.6 369.784 4
 -1 4 -3 11532.7 385.985 6
 1 4 3 10987.1 370.478 1
 -1 4 -4 4614.06 187.306 7
 -1 4 -4 4666.06 175.473 4
 -1 4 -4 4633.72 187.536 6
 -1 4 -4 4472.56 174.564 5
 -1 4 -5 335.681 34.6057 4
 -1 4 -5 271.279 38.7307 7
 -1 4 -5 289.755 33.2315 5
 -1 4 -5 374.015 42.4992 6
 -1 4 -6 1411.5 82.6115 5
 -1 4 -6 1557.19 84.5446 4
 -1 4 -6 1516.96 94.623 7
 -1 4 -6 1474.64 93.0385 6
 -1 4 -7 761.516 60.7345 4
 -1 4 -7 713.488 59.7472 5
 -1 4 -7 614.959 64.8334 7
 -1 4 -7 547.308 61.4675 6
 -1 4 -8 2546.59 136.772 6
 -1 4 -8 2339.07 125.456 5
 -1 4 -8 2434.06 127.924 4
 -1 4 -8 2139.23 129.868 7
 -1 4 -9 614.118 65.0998 5
 -1 4 -9 594.92 68.6183 7
 -1 4 -9 577.585 67.2115 6
 -1 4 -9 571.977 63.8267 4
 -1 4 -10 616.536 69.5548 5
 -1 4 -10 519.255 66.1542 4
 -1 4 -10 505.132 69.9615 7
 -1 4 -10 616.696 74.2014 6
 -1 4 -11 831.141 85.8564 6
 -1 4 -11 851.307 86.4035 7
 -1 4 -12 580.71 78.988 6
 -1 4 -12 638.813 81.8816 7
 1 5 -13 291.111 59.0255 7
 1 5 -13 280.682 64.1122 6
 1 5 -12 -9.46692 46.9625 7
 1 5 -12 -18.9289 43.4679 6
 1 5 -11 292.682 61.4309 7
 1 5 -11 230.892 56.8223 6
 1 5 -10 395.829 56.8935 4
 1 5 -10 355.291 61.5584 7
 1 5 -10 332.513 53.822 5
 1 5 -10 421.281 64.2129 6
 1 5 -9 647.222 72.2802 7
 1 5 -9 859.993 74.7 4
 1 5 -9 719.513 69.1238 5
 1 5 -9 685.635 73.4323 6
 1 5 -8 2086.33 126.178 6
 1 5 -8 2202.53 130.592 7
 1 5 -8 2196.13 121.25 4
 1 5 -8 2111.71 120.002 5
 1 5 -7 277.146 47.5427 6
 -1 5 7 336.177 43.9029 1
 1 5 -7 317.024 42.5754 5
 1 5 -7 295.031 48.2553 7
 1 5 -7 232.725 38.175 4
 1 5 -6 4057.39 173.705 5
 1 5 -6 3890.74 181.862 6
 -1 5 6 3933.82 174.479 1
 1 5 -6 4283.74 186.479 7
 1 5 -6 3942.01 172.281 4
 -1 5 5 829.471 61.1095 1
 1 5 -5 788.146 63.8507 7
 1 5 -5 806.301 65.3188 6
 1 5 -5 846.456 57.6199 4
 1 5 -5 712.451 55.4018 5
 1 5 -4 1424.72 74.4109 5
 1 5 -4 1238.6 79.4457 6
 1 5 -4 1434.85 74.8615 4
 1 5 -4 1370.37 81.6691 7
 1 5 -3 3551.08 141.283 5
 1 5 -3 3553.11 150.662 6
 1 5 -3 3354.44 140.001 4
 -1 5 3 3299.31 147.477 1
 1 5 -3 3511.31 151.049 7
 1 5 -2 3752.46 148.388 4
 1 5 -2 3658.61 147.567 5
 1 5 -2 3799.45 157.184 7
 1 5 -2 3988.05 159.065 6
 1 5 -1 2625.81 114.159 5
 1 5 -1 2829.33 116.291 4
 1 5 -1 2918.91 122.053 6
 1 5 -1 2902.29 122.122 7
 1 5 0 6468.29 239.042 5
 1 5 0 6841.25 243.952 7
 1 5 0 6827.44 243.844 6
 1 5 0 6492.9 239.561 4
 1 5 1 1911.06 84.4781 6
 1 5 1 1733.59 82.1282 7
 -1 5 -1 1727.53 80.6952 7
 -1 5 -1 1670.85 79.7654 6
 -1 5 -2 4375.06 171.61 7
 -1 5 -2 4355.2 171.392 6
 -1 5 -3 4582.11 185.664 7
 -1 5 -3 4630.84 185.49 6
 -1 5 -4 1094.6 70.5818 6
 -1 5 -4 1052.35 71.0663 7
 -1 5 -5 4697.8 199.865 7
 -1 5 -5 4608.01 198.429 6
 -1 5 -6 3842.21 174.582 6
 -1 5 -6 3567.28 171.785 7
 -1 5 -7 1887.26 113.692 7
 -1 5 -7 1781.81 111.64 6
 -1 5 -8 71.1713 35.9686 7
 -1 5 -8 163.348 44.6939 6
 -1 5 -9 547.335 66.3293 7
 -1 5 -9 490.626 64.115 6
 -1 5 -10 84.8292 42.9226 6
 -1 5 -10 229.91 51.69 7
 -1 5 -11 9.20249 43.6494 7
 -1 5 -11 9.15777 40.632 6
 -1 5 -12 -19.7569 38.85 7
 -1 5 -12 39.436 36.033 6
 1 6 -12 29.6836 43.1377 7
 1 6 -12 69.3024 43.163 6
 1 6 -11 261.142 60.2655 6
 1 6 -11 316.787 60.2072 7
 1 6 -10 392.861 60.4415 7
 1 6 -10 288.109 58.1851 6
 1 6 -9 445.414 65.7064 6
 1 6 -9 469.863 63.9478 7
 1 6 -8 856.225 80.6672 6
 1 6 -8 758.964 77.9217 7
 1 6 -7 618.387 68.8791 6
 1 6 -7 575.9 64.8228 7
 1 6 -6 1711.61 107.432 6
 1 6 -6 1797.45 108.983 7
 1 6 -5 1627.05 99.6861 7
 1 6 -5 1671.51 100.467 6
 -1 6 5 1669.02 96.193 1
 -1 6 4 776.538 59.907 1
 1 6 -4 912.789 68.096 7
 1 6 -4 728.588 63.0829 6
 1 6 -3 444.026 45.3176 6
 1 6 -3 469.295 46.0882 7
 1 6 -2 1663.11 90.7801 6
 1 6 -2 1787.05 92.6588 7
 1 6 -1 1454.74 78.2744 6
 1 6 -1 1379.39 77.4672 7
 -1 6 -3 4.17566 19.8091 7
 -1 6 -3 20.8394 22.1052 6
 -1 6 -4 4.81576 22.4831 7
 -1 6 -4 -19.2159 22.4281 6
 -1 6 -5 782.616 65.1064 7
 -1 6 -5 748.147 63.351 6
 -1 6 -6 969.614 77.0257 7
 -1 6 -6 809.511 72.7424 6
 -1 6 -7 885.608 80.4707 7
 -1 6 -7 885.037 79.8152 6
 -1 6 -8 104.996 40.354 7
 -1 6 -8 67.2997 36.1175 6
 -1 6 -9 122.881 43.0739 7
 -1 6 -9 122.271 39.4569 6
 -1 6 -10 1360.33 111.417 6
 -1 6 -10 1011.78 101.233 7
 -1 6 -11 66.441 42.1276 6
 -1 6 -11 9.53544 39.1851 7
 1 7 -11 19.4582 46.1673 7
 1 7 -11 68.0992 46.1643 6
 1 7 -10 146.619 51.063 6
 1 7 -10 64.2003 42.931 7
 1 7 -9 941.789 92.1157 7
 1 7 -9 1001.12 92.346 6
 1 7 -8 371.963 60.8424 7
 1 7 -8 356.453 60.5315 6
 1 7 -7 798.398 78.9865 7
 1 7 -7 705.803 75.0631 6
 1 7 -6 2989.25 155.564 7
 1 7 -6 3014.82 156.36 6
 1 7 -5 762.111 68.9537 6
 1 7 -5 910.96 73.2889 7
 1 7 -4 740.385 63.4484 7
 1 7 -4 670.448 62.2331 6
 1 7 -3 4203.89 182.519 7
 1 7 -3 4106.46 181.127 6
 -1 7 -6 2784.06 147.162 7
 -1 7 -6 2592.54 143.269 6
 -1 7 -7 660.859 72.9073 7
 -1 7 -7 674.899 72.3761 6
 -1 7 -8 212.246 48.0914 7
 -1 7 -8 250.871 53.0952 6
 -1 7 -9 375.698 64.5415 7
 -1 7 -9 433.265 62.2217 6
 -1 7 -10 229.991 59.219 7
 -1 7 -10 237.932 55.8338 6
 -1 7 -11 403.016 73.4788 7
 -1 7 -11 410.602 72.6311 6
 1 8 -10 209.576 55.4981 7
 1 8 -10 380.849 64.0049 6
 1 8 -9 35.8919 35.3223 7
 1 8 -9 62.7961 38.3848 6
 1 8 -8 1020.91 92.533 6
 1 8 -8 853.212 86.4526 7
 1 8 -7 1511.2 110.223 6
 1 8 -7 1595.6 113.745 7
 1 8 -6 583.54 68.8179 7
 1 8 -6 600.106 69.584 6
 -1 8 -9 662.808 81.5464 7
 -1 8 -9 659.431 82.1572 6
 -1 8 -10 188.31 56.7978 6
 -1 8 -10 246.027 59.7712 7
 -2 -11 5 133.331 52.536 3
 2 -11 -4 448.041 73.5445 3
 -2 -11 4 505.347 69.5345 3
 2 -11 -3 448.132 69.3879 3
 -2 -11 3 467.229 71.6591 3
 -2 -11 2 134.067 49.018 3
 2 -11 -2 126.528 51.1338 3
 -2 -11 1 58.0379 35.4139 3
 2 -11 -1 76.1559 44.4894 3
 -2 -11 0 476.625 76.868 3
 2 -11 0 521.927 74.6169 3
 -2 -11 -1 480.882 75.1831 3
 -2 -11 -2 68.7934 46.6653 3
 -2 -11 -3 9.83637 41.2388 3
 -2 -11 -4 9.83685 46.6584 3
 2 -10 -7 60.7472 46.5374 3
 2 -10 -6 148.911 57.8648 3
 -2 -10 5 52.8555 41.8567 3
 2 -10 -5 115.99 51.9535 3
 -2 -10 4 122.717 43.6818 3
 2 -10 -4 141.335 48.238 3
 -2 -10 3 227.217 55.1779 3
 2 -10 -3 164.882 49.5623 3
 -2 -10 2 61.5153 39.7348 3
 2 -10 -2 71.3478 49.6465 3
 -2 -10 1 1542.43 119.263 3
 2 -10 -1 1528.37 117.246 3
 2 -10 0 236.738 53.9621 3
 -2 -10 0 196.584 50.7279 3
 2 -10 1 66.1079 39.8487 3
 -2 -10 -1 53.6924 41.8206 3
 -2 -10 -2 -8.97177 39.0908 3
 2 -10 2 -16.8123 39.2456 1
 2 -10 3 60.9059 44.4886 1
 -2 -10 -3 152.978 52.9104 3
 2 -10 4 45.2239 46.1356 1
 -2 -10 -4 9.01796 33.8223 3
 2 -10 5 18.6946 40.7289 1
 2 -10 6 19.3713 41.4144 1
 2 -9 -9 823.644 91.7302 3
 2 -9 -8 361.441 67.2441 3
 2 -9 -7 120.89 46.9418 3
 -2 -9 6 153.157 43.1006 3
 2 -9 -6 199.306 50.1145 3
 2 -9 -5 361.959 59.891 3
 -2 -9 5 224.78 49.8145 3
 -2 -9 4 222.651 50.1814 3
 2 -9 -4 129.091 42.4161 3
 -2 -9 3 55.445 33.8771 3
 2 -9 -3 8.32598 30.4444 3
 2 -9 -2 653.184 77.5903 3
 -2 -9 2 731.621 77.4699 3
 2 -9 -1 170.707 48.7173 1
 -2 -9 1 270.758 51.8838 3
 2 -9 -1 320.237 57.6288 3
 2 -9 0 174.097 44.2764 3
 -2 -9 0 168.51 44.423 3
 2 -9 0 146.678 42.0275 1
 2 -9 1 579.178 65.4893 1
 -2 -9 -1 489.96 69.9846 3
 2 -9 1 478.197 63.848 3
 -2 -9 -2 394.89 61.9506 3
 2 -9 2 349.342 56.4802 1
 -2 -9 -3 1068.32 92.2406 3
 2 -9 3 717.405 82.1945 1
 2 -9 4 33.7219 36.0504 1
 -2 -9 -4 8.14072 39.2173 3
 -2 -9 -5 671.153 77.4728 3
 2 -9 5 649.717 78.6722 1
 2 -9 6 246.519 59.3272 1
 2 -9 7 38.1273 40.7704 1
 2 -9 8 337.896 63.2829 1
 -2 -8 11 458.128 75.3879 1
 2 -8 -9 1015.33 100.091 3
 2 -8 -8 61.2576 42.1963 3
 2 -8 -7 594.638 74.3971 3
 2 -8 -6 517.895 66.3778 3
 -2 -8 6 516.857 65.8304 3
 -2 -8 5 224.14 46.8697 3
 2 -8 -5 293.944 55.917 3
 2 -8 -4 2692.62 155.426 3
 -2 -8 4 2860.07 154.615 3
 -2 -8 3 924.546 82.5545 3
 2 -8 -3 800.796 74.8637 1
 -2 -8 2 1905.31 121.096 3
 2 -8 -2 1987.09 123.36 3
 2 -8 -2 1915.07 116.589 1
 -2 -8 1 1519.88 102.394 3
 2 -8 -1 1325.15 94.398 1
 -2 -8 0 2927.06 155.72 3
 2 -8 0 2757.76 150.348 3
 2 -8 0 2843.91 149.714 1
 2 -8 1 232.101 49.3119 1
 -2 -8 -1 298.065 48.7267 3
 2 -8 1 270.773 48.1952 3
 2 -8 2 1040.25 87.7533 1
 -2 -8 -2 1054.1 88.036 3
 -2 -8 -3 21.5099 32.387 3
 2 -8 3 36.8515 37.6008 1
 2 -8 4 1936.93 126.741 1
 -2 -8 -4 2023.15 126.911 3
 -2 -8 -5 101.578 36.096 3
 2 -8 5 81.2234 42.6195 1
 -2 -8 -5 74.4008 35.9417 8
 2 -8 6 -34.0668 35.7071 1
 -2 -8 -6 23.9916 32.852 8
 -2 -8 -7 283.531 55.5917 8
 2 -8 7 277.727 59.8235 1
 -2 -8 -8 73.7178 43.1288 8
 2 -8 8 131.551 52.9419 1
 2 -8 9 471.609 75.2017 1
 -2 -8 -9 342.536 61.5976 8
 2 -7 -11 351.471 62.3088 8
 -2 -7 11 436.9 71.4445 1
 2 -7 -10 631.749 79.044 8
 -2 -7 10 631.895 79.9705 1
 2 -7 -9 412.543 64.624 3
 -2 -7 9 482.345 64.8354 1
 -2 -7 8 71.5492 42.5462 1
 2 -7 -8 143.709 49.3006 3
 -2 -7 7 527.498 63.9606 1
 2 -7 -7 725.437 75.8509 3
 -2 -7 7 646.764 66.7606 3
 -2 -7 6 849.514 75.3991 3
 2 -7 -6 808.507 77.9619 3
 2 -7 -5 7.11047 33.2003 3
 -2 -7 5 45.0874 29.5869 3
 2 -7 -5 12.0294 26.6929 1
 2 -7 -4 186.922 39.4337 1
 2 -7 -4 251.896 46.8441 3
 -2 -7 4 195.101 41.4072 3
 -2 -7 3 5694.03 254.571 3
 2 -7 -3 6533.97 265.774 3
 2 -7 -3 6329.07 255.883 1
 2 -7 -2 2477.92 131.027 3
 -2 -7 2 2148.05 124.294 3
 2 -7 -2 2108.55 119.387 1
 2 -7 -1 2332.69 129.547 3
 2 -7 -1 2462.56 128.529 1
 -2 -7 1 2375.5 131.987 3
 -2 -7 0 4239.55 197.223 3
 2 -7 0 4384.49 195.142 3
 2 -7 0 4367.23 195.012 1
 -2 -7 -1 1699.71 107.377 3
 2 -7 1 1644.74 101.265 3
 2 -7 1 1740.29 106.822 1
 -2 -7 -2 2167.04 124.202 3
 2 -7 2 2107.71 117.814 3
 2 -7 2 2361.37 128.469 1
 -2 -7 -2 2138.5 118.539 8
 -2 -7 -3 2726.78 144.588 3
 -2 -7 -3 2659.64 141.197 8
 2 -7 3 2822.92 149.057 1
 -2 -7 -4 464.475 57.554 3
 -2 -7 -4 411.068 55.251 8
 2 -7 4 498.599 62.3335 1
 2 -7 5 877.019 80.0792 1
 -2 -7 -5 619.624 66.4046 3
 -2 -7 -5 850.539 78.4668 8
 -2 -7 -6 530.67 66.2098 8
 2 -7 6 722.764 75.0595 1
 2 -7 7 855.947 87.5574 1
 -2 -7 -7 830.211 85.5939 8
 2 -7 8 255.21 53.1281 1
 -2 -7 -8 177.541 47.5586 8
 -2 -7 -9 9.49343 41.362 8
 2 -7 9 -27.8327 45.3595 1
 2 -7 10 156.125 56.3039 1
 -2 -7 -10 151.281 50.2674 8
 2 -6 -12 775.165 88.8756 8
 -2 -6 12 990.114 99.4096 1
 2 -6 -11 1072.46 101.936 8
 -2 -6 11 1147.39 102.252 1
 2 -6 -10 -49.8468 37.5308 8
 -2 -6 10 -24.2218 40.6358 1
 -2 -6 9 162.677 46.8293 1
 2 -6 -9 253.927 47.2896 3
 2 -6 -9 181.901 46.2644 8
 2 -6 -8 1118.54 90.2668 3
 2 -6 -8 1177.79 91.3153 8
 -2 -6 8 1117.12 87.663 1
 -2 -6 7 2973.92 151.619 1
 2 -6 -7 3119.08 159.846 3
 2 -6 -7 3025.79 151.745 8
 -2 -6 7 2808.98 147.353 3
 -2 -6 6 391.07 49.7002 1
 2 -6 -6 307.105 48.3566 3
 -2 -6 6 458.476 53.7949 3
 -2 -6 5 702.338 64.7896 3
 2 -6 -5 799.222 73.1664 3
 -2 -6 5 827.582 64.1794 1
 2 -6 -4 89.084 32.1212 1
 -2 -6 4 88.1812 28.2613 3
 2 -6 -4 101.411 36.5314 3
 -2 -6 3 1447.26 91.0025 3
 2 -6 -3 1478.2 93.7766 3
 2 -6 -3 1465.36 90.4835 1
 -2 -6 2 4067.36 183.238 3
 2 -6 -2 4410.93 187.412 3
 2 -6 -2 3954.54 179.232 1
 -2 -6 1 4567.33 198.055 3
 2 -6 -1 4671.36 196.684 1
 2 -6 -1 4427.63 195.23 3
 2 -6 0 1684.43 95.2816 3
 -2 -6 0 1465.88 93.7829 3
 2 -6 0 1660.79 96.5529 1
 -2 -6 0 1573.59 88.0616 8
 -2 -6 -1 917.858 69.7025 3
 2 -6 1 956.845 67.6091 3
 2 -6 1 921.203 72.3878 1
 -2 -6 -1 909.208 66.5752 8
 -2 -6 -2 1562.54 96.229 3
 2 -6 2 1595.16 90.8937 3
 -2 -6 -2 1616.54 95.0116 8
 2 -6 2 1678.08 99.4235 1
 -2 -6 -3 102.908 29.9376 8
 2 -6 3 136.379 37.6614 1
 -2 -6 -3 63.5757 30.2847 3
 -2 -6 -4 801.175 67.0358 3
 2 -6 4 908.389 76.8285 1
 -2 -6 -4 710.335 65.1123 8
 -2 -6 -5 920.522 75.8172 8
 2 -6 5 693.888 72.4489 1
 -2 -6 -6 729.16 74.5256 8
 2 -6 6 754.052 74.8333 1
 2 -6 7 1234.26 99.9037 1
 -2 -6 -7 1468.21 104.905 8
 -2 -6 -8 109.173 43.0153 8
 2 -6 8 139.213 41.9547 1
 2 -6 9 69.6307 45.0365 1
 -2 -6 -9 63.2142 37.154 8
 2 -6 10 36.9236 50.806 1
 -2 -6 -10 96.581 42.1419 8
 2 -6 11 68.0327 47.5266 1
 -2 -6 -11 10.2469 34.3803 8
 2 -5 -13 -30.2841 44.7887 8
 -2 -5 13 9.84144 43.665 1
 2 -5 -12 -9.44035 41.1542 8
 -2 -5 12 110.972 45.8946 1
 2 -5 -11 236.627 52.8367 8
 -2 -5 11 162.338 44.0085 1
 2 -5 -10 313.574 55.5664 8
 -2 -5 10 271.817 58.6326 1
 2 -5 -9 1562.36 113.826 8
 2 -5 -9 1817.26 114.996 3
 -2 -5 9 1905.25 119.408 1
 2 -5 -8 354.405 52.0364 8
 2 -5 -8 451.945 55.8923 3
 -2 -5 8 405.324 56.1523 1
 2 -5 -7 116.22 35.0095 3
 2 -5 -7 99.0045 34.0615 8
 -2 -5 7 164.181 37.8848 1
 -2 -5 7 123.759 33.389 3
 2 -5 -6 3184.39 149.976 8
 -2 -5 6 3002.16 146.959 1
 2 -5 -6 3239.35 155.827 3
 -2 -5 6 3237.1 150.867 3
 2 -5 -5 6879.44 269.002 3
 -2 -5 5 6513.54 256.262 1
 2 -5 -5 6587.25 257.486 8
 -2 -5 5 6585.74 262.387 3
 2 -5 -4 8910.43 320.617 8
 2 -5 -4 9130.34 335.96 3
 -2 -5 4 8569.46 329.719 3
 -2 -5 4 8610.92 319.93 1
 2 -5 -3 1126.2 74.6446 3
 -2 -5 3 1154.85 64.7489 1
 -2 -5 3 977.851 69.3405 3
 2 -5 -2 2354.53 117.182 3
 -2 -5 2 2225.77 114.372 3
 -2 -5 2 2491.91 103.078 1
 2 -5 -2 2254.68 114.188 1
 -2 -5 1 3039.91 137.714 3
 2 -5 -1 3026.51 137.357 3
 2 -5 -1 2883.14 135.965 1
 -2 -5 0 2992.28 134.9 3
 2 -5 0 3023.08 132.618 3
 -2 -5 0 2732.95 123.033 4
 -2 -5 0 2861.53 128.596 8
 2 -5 0 2752.33 132.257 1
 -2 -5 0 2843.5 124.28 5
 -2 -5 -1 1127.73 72.6317 3
 2 -5 1 1166.18 68.201 3
 -2 -5 -1 956.725 62.5664 4
 -2 -5 -1 1006.31 66.7379 8
 2 -5 1 1224.44 75.6473 1
 -2 -5 -1 1066.86 64.4915 5
 -2 -5 -2 9549.05 345.562 3
 2 -5 2 9472.73 337.497 3
 -2 -5 -2 9179.23 337.523 5
 -2 -5 -2 9133.51 344.855 8
 2 -5 2 9645.58 351.703 1
 -2 -5 -2 9165.63 337.755 4
 -2 -5 -3 1469.37 85.4075 3
 2 -5 3 1437.13 90.4466 1
 -2 -5 -3 1587.73 84.9665 4
 -2 -5 -3 1376.39 87.0407 8
 -2 -5 -3 1458.82 82.7136 5
 -2 -5 -4 5275.42 210.469 3
 -2 -5 -4 5268.2 211.775 5
 -2 -5 -4 4985.8 210.603 4
 2 -5 4 5153.09 220.659 1
 -2 -5 -4 5072.97 218.493 8
 -2 -5 -5 1447.68 94.9977 8
 -2 -5 -5 1311.44 84.3518 5
 -2 -5 -5 1257.06 83.3737 4
 2 -5 5 1354.58 92.727 1
 -2 -5 -6 609.355 62.7677 8
 -2 -5 -6 544.764 57.4189 5
 -2 -5 -6 512.887 56.6396 4
 2 -5 6 644.133 67.0664 1
 2 -5 7 2712.2 149.431 1
 -2 -5 -7 2714.34 143.472 4
 -2 -5 -7 2963.21 155.177 8
 -2 -5 -7 2509.82 141.097 5
 -2 -5 -8 201.085 44.8024 4
 -2 -5 -8 193.521 43.5179 5
 2 -5 8 317.425 56.3826 1
 -2 -5 -8 181.432 47.2664 8
 -2 -5 -9 22.7156 35.9375 5
 -2 -5 -9 60.7712 38.2381 4
 -2 -5 -9 59.7498 38.563 8
 2 -5 9 24.3245 35.3495 1
 2 -5 10 103.755 45.978 1
 -2 -5 -10 110.161 43.6762 8
 2 -5 11 18.429 46.3852 1
 -2 -5 -11 78.3738 41.1038 8
 2 -5 12 232.801 60.2267 1
 -2 -4 13 66.5679 39.9685 1
 2 -4 -13 118.218 46.0779 8
 2 -4 -12 64.2501 36.1966 8
 -2 -4 12 115.933 46.1716 1
 -2 -4 11 140.284 45.7349 1
 2 -4 -11 228.216 49.9428 8
 -2 -4 10 908.753 82.0469 1
 2 -4 -10 686.73 72.889 8
 2 -4 -9 796.216 78.2553 8
 2 -4 -9 963.932 77.8192 3
 -2 -4 9 912.134 80.3541 1
 2 -4 -8 2581.95 139.166 3
 -2 -4 8 2645.07 141.07 1
 2 -4 -7 186.895 37.4079 8
 -2 -4 7 232.798 40.1774 1
 2 -4 -7 270.412 40.0352 3
 -2 -4 7 141.584 31.0076 3
 2 -4 -6 1699.66 99.1993 3
 2 -4 -6 1623.84 94.6734 8
 -2 -4 6 1746.93 96.2403 1
 -2 -4 6 1645.56 93.416 3
 -2 -4 5 99.4704 25.148 1
 2 -4 -5 76.4233 27.6226 3
 -2 -4 5 94.87 26.9851 3
 2 -4 -5 106.006 25.9865 8
 2 -4 -4 648.992 53.6506 3
 -2 -4 4 754.586 56.2359 3
 -2 -4 4 623.014 45.8866 1
 2 -4 -4 599.197 46.751 8
 2 -4 -3 1489.01 79.7127 3
 2 -4 -3 1292.46 66.8131 8
 -2 -4 3 1249.09 73.7702 3
 -2 -4 3 1292.98 67.1754 1
 -2 -4 2 3695.37 141.642 1
 -2 -4 2 3697.53 154.971 3
 2 -4 -2 3422.24 138.745 8
 2 -4 -2 3970.55 157.455 3
 2 -4 -2 4041.19 158.126 1
 -2 -4 1 7705.59 261.465 1
 2 -4 -1 7708.84 280.426 3
 -2 -4 1 7881.4 281.504 3
 2 -4 -1 7220.57 279.414 1
 2 -4 -1 7497.63 258.265 8
 -2 -4 0 6571.76 239.518 3
 -2 -4 0 6034.99 231.978 5
 -2 -4 0 6016.41 234.614 8
 2 -4 0 6405.02 235.117 3
 -2 -4 0 6256.7 232.816 4
 2 -4 0 6585.92 240.979 1
 -2 -4 -1 10123.4 352.745 3
 2 -4 1 9462.19 345.238 3
 2 -4 1 10685.1 358.894 1
 -2 -4 -1 10128.6 354.095 8
 -2 -4 -1 9726.24 348.31 5
 -2 -4 -1 9269.57 348.025 4
 -2 -4 -2 3441.81 149.49 5
 -2 -4 -2 3772.31 151.925 3
 2 -4 2 3444.54 142.795 3
 -2 -4 -2 3847.9 156.245 8
 2 -4 2 3839.21 159.648 1
 -2 -4 -2 3526.7 150.653 4
 -2 -4 -3 1144.13 73.2873 8
 -2 -4 -3 1221.36 67.9572 3
 -2 -4 -3 1110.85 65.4184 7
 -2 -4 -3 1238.18 71.8292 4
 -2 -4 -3 1093.18 65.9615 6
 2 -4 3 1184.27 75.8791 1
 -2 -4 -3 1055.24 64.727 2
 -2 -4 -3 1070.17 68.8781 5
 -2 -4 -4 10355.9 381.145 5
 -2 -4 -4 10640.2 383.003 4
 -2 -4 -4 10835.9 374.507 3
 -2 -4 -4 10407.5 375.417 7
 2 -4 4 10582 388.463 1
 -2 -4 -4 10514.7 374.38 2
 -2 -4 -4 10253.4 386.624 8
 -2 -4 -4 10391.7 375.292 6
 -2 -4 -5 3827.76 172.628 8
 -2 -4 -5 3866.24 167.966 5
 -2 -4 -5 3634.37 165.876 4
 2 -4 5 3913.35 173.411 1
 -2 -4 -5 3827.3 161.555 6
 -2 -4 -5 3582.23 157.312 2
 -2 -4 -5 3571.53 158.147 7
 2 -4 6 3291.34 155.069 1
 -2 -4 -6 3106.57 150.127 4
 -2 -4 -6 2855.95 146.798 5
 -2 -4 -6 2924.38 151.768 8
 -2 -4 -7 5860.64 264.394 8
 2 -4 7 6391.85 266.481 1
 -2 -4 -7 6470.48 264.297 5
 -2 -4 -7 6440.45 264.382 4
 -2 -4 -8 40.6382 31.6272 5
 2 -4 8 13.8951 34.4703 1
 -2 -4 -8 29.4708 33.275 8
 -2 -4 -8 6.79919 29.0778 4
 2 -4 9 421.896 64.1197 1
 -2 -4 -9 432.733 61.3416 5
 -2 -4 -9 598.873 68.2142 4
 -2 -4 -9 512.649 67.6097 8
 2 -4 10 567.924 73.9806 1
 -2 -4 -10 693.153 79.0007 8
 -2 -4 -10 515.494 68.6523 4
 -2 -4 -10 709.502 76.5067 5
 -2 -4 -11 736.454 81.7301 4
 -2 -4 -11 654.419 80.4575 5
 -2 -4 -11 754.678 86.6291 8
 2 -4 11 486.15 74.5972 1
 -2 -4 -12 417.832 66.4875 5
 2 -4 12 452.676 74.2499 1
 -2 -4 -12 297.443 64.1265 8
 -2 -4 -12 514.495 72.6531 4
 2 -3 -14 10.1842 40.9563 8
 -2 -3 14 29.655 44.6374 1
 2 -3 -13 105 50.1148 8
 -2 -3 13 120.46 41.9978 1
 2 -3 -12 17.714 42.0121 8
 -2 -3 12 8.58463 35.9926 1
 2 -3 -11 626.675 72.7863 8
 2 -3 -11 713.764 70.5428 5
 2 -3 -11 586.953 67.1914 4
 -2 -3 11 608.464 72.0652 1
 2 -3 -10 2368.16 131.664 5
 2 -3 -10 2335.19 130.811 4
 -2 -3 10 2414.34 138.094 1
 2 -3 -10 2169.4 133.747 8
 2 -3 -9 867.337 73.8147 8
 2 -3 -9 861.325 70.1343 4
 2 -3 -9 651.026 65.2957 3
 -2 -3 9 787.615 71.269 1
 2 -3 -9 832.929 70.5311 5
 2 -3 -8 1582.29 92.0926 5
 2 -3 -8 1462.31 93.9565 3
 -2 -3 8 1596.36 99.135 1
 2 -3 -8 1421.84 88.6422 4
 -2 -3 8 1596.7 90.6495 3
 2 -3 -8 1445.96 95.4817 8
 2 -3 -7 1591.79 88.0053 5
 2 -3 -7 1565.93 86.8321 4
 -2 -3 7 1578.57 93.4683 1
 2 -3 -7 1479.35 93.0385 8
 2 -3 -7 1709.14 95.2834 3
 -2 -3 7 1590.71 90.1261 3
 2 -3 -6 1658.47 84.3179 5
 2 -3 -6 1611.7 83.9462 4
 2 -3 -6 1634.92 93.0515 3
 -2 -3 6 1765.14 92.1749 1
 -2 -3 6 1640.85 89.3504 3
 2 -3 -6 1553.97 91.4282 8
 2 -3 -5 2790.32 123.613 5
 -2 -3 5 3193.67 134.808 1
 2 -3 -5 3231.35 140.029 3
 2 -3 -5 3221.63 136.691 8
 2 -3 -5 2848 124.076 4
 -2 -3 5 3398.11 137.846 3
 2 -3 -4 3857 149.318 5
 2 -3 -4 3701.19 158.028 8
 2 -3 -4 4621.74 170.867 3
 -2 -3 4 4148.6 159.376 1
 2 -3 -4 3821.84 149.057 4
 -2 -3 4 4257.02 164.702 3
 2 -3 -3 12049.9 402.799 5
 2 -3 -3 12370.7 424.56 3
 2 -3 -3 12240.8 414.911 8
 -2 -3 3 12201.1 412.999 1
 2 -3 -3 11849.2 402.597 4
 -2 -3 3 12281.2 422.356 3
 2 -3 -2 6911.67 230.742 5
 2 -3 -2 6790.37 241.422 8
 2 -3 -2 7487.99 256.051 3
 -2 -3 2 7001.71 240.704 1
 2 -3 -2 6864.05 230.684 4
 -2 -3 2 6704.17 252.126 3
 -2 -3 1 9653.34 351.27 3
 -2 -3 1 10977.4 353.024 7
 -2 -3 1 9846.61 350.638 4
 2 -3 -1 9925.42 350.826 3
 2 -3 -1 10389.8 331.984 7
 -2 -3 1 9809.9 334.83 1
 2 -3 -1 9969.57 335.957 8
 -2 -3 1 10407.3 350.535 6
 2 -3 -1 10102.9 331.574 6
 2 -3 -1 9251.46 351.093 1
 -2 -3 1 10229.8 351.24 5
 -2 -3 0 9370.39 326.363 3
 2 -3 0 9418.93 303.1 5
 2 -3 0 8965.5 322.341 3
 2 -3 0 9197.25 302.909 4
 2 -3 0 9526.27 313.005 7
 2 -3 0 9327.94 329.032 1
 2 -3 0 9871.23 313.342 6
 -2 -3 0 9065.29 304.62 1
 2 -3 0 9457.76 304.737 8
 -2 -3 0 8968.93 326.681 8
 -2 -3 0 8729.33 325.09 4
 -2 -3 0 9003.04 325.269 5
 -2 -3 -1 16749.2 569.645 5
 2 -3 1 16762 560.102 6
 2 -3 1 16953.1 560.343 7
 -2 -3 -1 16675 567.802 3
 2 -3 1 17396.9 550.922 5
 2 -3 1 16447.4 563.173 3
 -2 -3 -1 16502.6 570.132 4
 2 -3 1 17110.2 550.622 4
 2 -3 1 17012.5 573.807 1
 -2 -3 -1 16043.1 571.025 8
 -2 -3 -2 1500.23 80.0168 5
 -2 -3 -2 1680.74 78.8502 3
 2 -3 2 1653.77 69.1629 5
 2 -3 2 1577.78 72.0341 3
 -2 -3 -2 1637.63 80.6596 7
 2 -3 2 1790.59 86.8315 1
 -2 -3 -2 1816.9 86.8889 8
 -2 -3 -2 1570.37 78.5337 2
 2 -3 2 1708.77 77.2363 7
 2 -3 2 1695.09 69.4361 4
 -2 -3 -2 1632.7 80.9504 6
 2 -3 2 1736.18 77.411 6
 -2 -3 -2 1651.9 82.3723 4
 -2 -3 -3 1053.79 63.494 5
 2 -3 3 992.949 48.6055 3
 -2 -3 -3 944.868 54.9059 3
 -2 -3 -3 991.842 58.9863 7
 -2 -3 -3 860.018 57.0389 6
 -2 -3 -3 972.283 61.2371 4
 -2 -3 -3 1127.66 66.6892 8
 -2 -3 -3 963.581 58.3931 2
 2 -3 3 1030.92 64.1381 1
 -2 -3 -4 1440.8 82.4032 5
 -2 -3 -4 1399.03 70.8293 3
 -2 -3 -4 1590.61 87.1716 8
 2 -3 4 1554.25 85.2237 1
 -2 -3 -4 1327.87 76.5867 7
 -2 -3 -4 1482.15 82.721 4
 -2 -3 -4 1539.47 81.2462 6
 -2 -3 -4 1426.1 77.7817 2
 -2 -3 -5 4935.75 199.823 5
 -2 -3 -5 4741.19 192.745 6
 -2 -3 -5 4875.22 200.144 4
 2 -3 5 4878.15 200.245 1
 -2 -3 -5 4813.23 192.946 2
 -2 -3 -5 4539.6 190.887 7
 -2 -3 -5 4572.29 199.541 8
 -2 -3 -6 1771.61 102.878 5
 -2 -3 -6 1851.42 98.1201 7
 2 -3 6 1942.9 105.725 1
 -2 -3 -6 1640.08 95.364 6
 -2 -3 -6 1771.5 96.1841 2
 -2 -3 -6 1697.65 100.977 4
 -2 -3 -6 1679.07 102.587 8
 -2 -3 -7 75.0798 32.9343 2
 -2 -3 -7 94.9083 35.3144 5
 2 -3 7 52.1427 32.0154 1
 -2 -3 -7 83.2688 34.6994 4
 -2 -3 -7 140.53 35.6035 6
 -2 -3 -7 135.359 32.4462 7
 -2 -3 -7 136.04 38.5846 8
 2 -3 8 165.613 39.7831 1
 -2 -3 -8 211.887 46.2427 5
 -2 -3 -8 205.165 43.0209 8
 -2 -3 -8 245.612 45.6838 4
 2 -3 9 508.954 63.7893 1
 -2 -3 -9 498.794 61.2855 5
 -2 -3 -9 584.921 67.4211 8
 -2 -3 -9 500.047 60.8061 4
 -2 -3 -10 742.705 78.7598 8
 -2 -3 -10 993.591 89.5443 4
 -2 -3 -10 902.472 85.6897 5
 2 -3 10 780.391 79.0758 1
 -2 -3 -11 105.63 46.1212 8
 -2 -3 -11 43.9664 38.346 4
 -2 -3 -11 61.3996 34.535 5
 2 -3 11 16.3587 35.0083 1
 -2 -3 -12 644.088 83.6949 5
 -2 -3 -12 658.218 80.8459 8
 -2 -3 -12 721.311 86.4568 4
 2 -3 12 466.706 75.2993 1
 -2 -3 -13 825.901 93.647 8
 2 -2 -14 285.792 65.2785 5
 2 -2 -14 227.005 51.505 8
 -2 -2 14 222.407 60.0017 1
 2 -2 -14 170.22 55.9559 4
 -2 -2 13 415.009 65.4813 1
 2 -2 -13 434.035 70.03 8
 2 -2 -13 342.494 63.8082 4
 2 -2 -13 442.12 68.7758 5
 2 -2 -12 161.726 46.2256 5
 2 -2 -12 128.612 45.9538 4
 2 -2 -12 136.823 42.073 8
 -2 -2 12 167.024 48.2354 1
 2 -2 -11 21.9402 34.6886 5
 -2 -2 11 -7.64118 33.9025 1
 2 -2 -11 -14.528 34.4542 4
 2 -2 -11 23.3178 34.4855 8
 2 -2 -10 1721.75 111.294 5
 2 -2 -10 1736.41 116.344 8
 -2 -2 10 2040.09 120.492 1
 2 -2 -10 1795.39 111.987 4
 2 -2 -9 1244.18 84.9752 5
 2 -2 -9 1152.45 82.5886 3
 2 -2 -9 1259.59 86.1897 4
 2 -2 -9 1236.77 89.5012 8
 -2 -2 9 1193.63 87.29 1
 2 -2 -8 2710.68 134.422 5
 2 -2 -8 2633.63 131.149 3
 2 -2 -8 2743.27 134.388 4
 2 -2 -8 2814.07 140.481 8
 -2 -2 8 2610.96 136.505 1
 -2 -2 8 2879.31 131.577 3
 2 -2 -7 329.99 40.3946 5
 2 -2 -7 389.309 42.6358 4
 2 -2 -7 300.137 41.7413 3
 -2 -2 7 420.781 46.4416 1
 -2 -2 7 353.988 40.2854 3
 2 -2 -7 414.208 49.6255 8
 -2 -2 6 1222.89 73.6652 1
 2 -2 -6 1201.82 70.3375 5
 2 -2 -6 1214.54 73.3426 3
 2 -2 -6 1239.43 76.1079 8
 2 -2 -6 1165.19 68.9771 4
 -2 -2 6 1197.21 70.1177 3
 2 -2 -5 6931.83 271.443 5
 2 -2 -5 7346.77 260.317 7
 2 -2 -5 6939.79 271.431 4
 2 -2 -5 7882.62 283.076 3
 2 -2 -5 8484.25 285.037 8
 -2 -2 5 8128.87 281.213 1
 2 -2 -5 7754.35 261.204 6
 -2 -2 5 8035.16 281.812 3
 2 -2 -4 1000.4 52.0051 5
 2 -2 -4 868.64 54.7462 8
 2 -2 -4 925.099 41.513 7
 -2 -2 4 934.618 54.5058 1
 2 -2 -4 925.828 41.553 6
 2 -2 -4 965.627 51.4857 4
 -2 -2 4 947.733 56.5448 3
 2 -2 -4 1010.98 59.5308 3
 2 -2 -3 12605.5 438.166 5
 2 -2 -3 13371.9 452.313 3
 -2 -2 3 13869 449.409 5
 2 -2 -3 13388.7 428.999 6
 -2 -2 3 13703.7 449.399 4
 2 -2 -3 12262.1 437.898 4
 -2 -2 3 13306.1 450.362 3
 -2 -2 3 13367.5 443.965 1
 2 -2 -3 13279.8 428.947 7
 2 -2 -3 12553.9 445.432 8
 -2 -2 2 2317.95 94.6669 3
 2 -2 -2 2084.78 80.8489 5
 -2 -2 2 2215.96 85.0481 1
 2 -2 -2 2148.36 81.2782 4
 2 -2 -2 2347.91 76.3385 2
 2 -2 -2 2114.64 76.4762 6
 2 -2 -2 2269.55 76.305 7
 2 -2 -2 2092.49 75.9931 6
 2 -2 -2 2187.97 94.3351 3
 2 -2 -2 2197.59 87.6868 8
 2 -2 -1 46859.3 1517.98 5
 -2 -2 1 45837.8 1532.37 3
 2 -2 -1 46827 1518.7 5
 2 -2 -1 48956.2 1532.89 1
 2 -2 -1 46335.4 1532.12 3
 2 -2 -1 47954.6 1518.87 7
 2 -2 -1 46639.6 1522.64 8
 -2 -2 1 46622.7 1518.35 1
 -2 -2 1 48930.5 1535.68 4
 -2 -2 1 49705.7 1533.84 6
 2 -2 -1 45714.4 1518.61 4
 2 -2 -1 47143.1 1518.73 6
 -2 -2 1 50976.7 1535.21 7
 2 -2 -1 46649.3 1518 4
 -2 -2 1 48762.7 1535.26 5
 -2 -2 0 10098.6 341.986 3
 2 -2 0 10281.5 343.311 1
 2 -2 0 10032.2 340.055 3
 -2 -2 0 9545.81 344.372 5
 2 -2 0 10211 330.21 5
 2 -2 0 9703.51 329.743 8
 2 -2 0 10035 345.925 1
 2 -2 0 10188.9 334.776 6
 2 -2 0 10111.4 330.147 4
 2 -2 0 10090.4 334.789 7
 -2 -2 0 9898.97 346.398 8
 -2 -2 0 9868.83 345.423 4
 -2 -2 -1 3603.79 136.94 3
 2 -2 1 3858.98 131.485 5
 2 -2 1 3603.59 133.245 3
 -2 -2 -1 3472.62 142.33 7
 -2 -2 -1 3607.15 143.654 4
 -2 -2 -1 3429.22 142.165 6
 2 -2 1 3683.14 124.956 8
 -2 -2 -1 3594.42 141.728 2
 2 -2 1 3777.73 136.307 6
 2 -2 1 3764.94 131.113 4
 -2 -2 -1 3593.49 143.219 5
 2 -2 1 3566.2 142.629 1
 2 -2 1 3796.93 136.582 7
 -2 -2 -1 3701.69 144.61 8
 -2 -2 -2 518.502 32.766 3
 2 -2 2 509.37 31.7908 5
 2 -2 2 514.41 27.4489 3
 -2 -2 -2 472.431 38.3602 5
 -2 -2 -2 425.528 38.0606 6
 -2 -2 -2 415.714 38.0077 7
 2 -2 2 510.787 35.2433 7
 2 -2 2 497.024 31.256 4
 -2 -2 -2 527.668 22.2988 1
 -2 -2 -2 497.817 38.5938 4
 2 -2 2 469.29 38.0278 1
 2 -2 2 532.668 25.1836 8
 -2 -2 -2 479.118 37.4333 2
 2 -2 2 523.91 35.6737 6
 -2 -2 -2 543.352 40.0179 8
 -2 -2 -3 1338.99 75.0449 5
 2 -2 3 1575.11 58.5138 3
 2 -2 3 1534.97 69.6504 5
 -2 -2 -3 1561.26 67.1883 3
 -2 -2 -3 1392.89 76.258 4
 2 -2 3 1552.27 77.5268 1
 -2 -2 -3 1336.65 73.3405 7
 2 -2 3 1535.41 69.4934 4
 -2 -2 -3 1430.49 74.8642 6
 -2 -2 -3 1432.45 74.7264 2
 -2 -2 -3 1461.92 78.2626 8
 -2 -2 -4 6294.91 219.826 3
 -2 -2 -4 6232.06 238.987 5
 -2 -2 -4 6453.57 240.788 8
 -2 -2 -4 6307.55 236.428 2
 2 -2 4 6241.06 237.06 1
 -2 -2 -4 5711.13 234.243 6
 -2 -2 -4 6745.4 242.04 4
 -2 -2 -4 6048.95 235.818 7
 2 -2 5 2373.92 117.346 1
 -2 -2 -5 2625.67 122.723 8
 -2 -2 -5 2432.45 116.49 7
 -2 -2 -5 2625.59 122.77 5
 -2 -2 -5 2414.19 120.146 4
 -2 -2 -5 2551.68 117.945 6
 -2 -2 -5 2390.92 116.793 2
 2 -2 6 4652.82 199.118 1
 -2 -2 -6 4785.52 203.875 5
 -2 -2 -6 4926.15 200.824 6
 -2 -2 -6 4944.65 204.737 8
 -2 -2 -6 4748.07 203.76 4
 -2 -2 -6 4796.99 199.62 7
 -2 -2 -6 4853.77 200.391 2
 -2 -2 -7 4867.51 213.79 5
 2 -2 7 5237.49 212.763 1
 -2 -2 -7 4913.07 208.527 6
 -2 -2 -7 5182.03 215.79 8
 -2 -2 -7 4947.77 209.733 2
 -2 -2 -7 4922.25 208.61 7
 -2 -2 -7 4524.3 210.547 4
 -2 -2 -8 712.783 64.0631 2
 2 -2 8 816.343 70.0075 1
 -2 -2 -8 659.225 67.0155 5
 -2 -2 -8 781.345 69.6657 8
 -2 -2 -8 681.984 64.0756 7
 -2 -2 -8 714.347 65.163 6
 -2 -2 -8 686.016 67.3157 4
 -2 -2 -9 178 42.4771 2
 -2 -2 -9 287.731 49.8 5
 -2 -2 -9 208.745 46.0336 8
 -2 -2 -9 228.221 44.6352 7
 2 -2 9 206.48 43.0991 1
 -2 -2 -9 221.191 41.2237 6
 -2 -2 -9 136.876 40.1454 4
 -2 -2 -10 1015.28 92.8815 5
 -2 -2 -10 1157.37 94.1412 8
 2 -2 10 1203.94 93.3576 1
 -2 -2 -10 1040.49 92.5118 4
 -2 -2 -11 329.992 60.9821 4
 -2 -2 -11 363.278 62.0621 8
 2 -2 11 340.858 55.3806 1
 -2 -2 -11 303.423 59.1204 5
 -2 -2 -12 159.442 55.2254 5
 -2 -2 -12 169.108 51.8443 4
 -2 -2 -12 97.8985 47.4026 8
 -2 -2 -13 60.23 57.0875 5
 -2 -2 -13 -10.0953 54.2019 4
 2 -1 -14 58.1332 43.8155 5
 -2 -1 14 66.5686 49.2131 1
 2 -1 -14 76.974 46.4082 4
 2 -1 -14 104.933 47.3821 8
 2 -1 -13 17.8888 39.6876 5
 -2 -1 13 -8.85044 42.6326 1
 2 -1 -13 8.88448 41.4796 4
 2 -1 -13 62.4151 43.5963 8
 2 -1 -12 1390.85 109.814 5
 -2 -1 12 1403.53 109.139 1
 2 -1 -12 1162.16 102.155 4
 2 -1 -12 1250.72 102.428 8
 2 -1 -11 1177.84 91.1058 5
 -2 -1 11 945.712 84.8932 1
 2 -1 -11 1014.59 87.2971 8
 2 -1 -11 942.249 84.965 4
 -2 -1 10 26.9598 27.6946 1
 2 -1 -10 34.0688 28.5746 8
 2 -1 -10 19.8958 29.4331 4
 2 -1 -10 6.66948 30.1233 5
 2 -1 -9 8138.6 323.523 5
 -2 -1 9 7926.57 322.741 1
 2 -1 -9 8616.39 326.397 4
 2 -1 -9 8168.75 313.758 3
 2 -1 -9 8271.79 326.407 8
 2 -1 -8 2802.47 136.455 5
 2 -1 -8 2600.19 129.173 3
 -2 -1 8 2882.28 138.948 1
 2 -1 -8 2771.54 135.812 4
 2 -1 -8 2590.98 135.79 8
 -2 -1 8 2710.75 127.744 3
 2 -1 -7 9139.28 341.234 5
 2 -1 -7 9044.46 338.321 3
 -2 -1 7 9560.41 344.725 1
 2 -1 -7 8863.37 327.833 7
 2 -1 -7 9259.12 344.638 8
 2 -1 -7 8972.33 328.364 6
 -2 -1 7 9614.79 337.445 3
 2 -1 -7 9460.42 343.022 4
 2 -1 -6 3221.83 133.305 5
 2 -1 -6 2850.73 120.356 6
 2 -1 -6 2700.94 128.266 3
 -2 -1 6 2831.39 130.925 1
 2 -1 -6 2796.62 120.091 7
 2 -1 -6 3035.39 131.257 4
 -2 -1 6 3218.92 131.467 3
 2 -1 -6 3059.03 135.073 8
 2 -1 -5 2529.45 114.258 5
 2 -1 -5 2582.8 106.683 6
 -2 -1 5 2921.44 119.642 1
 2 -1 -5 2551.46 106.423 7
 2 -1 -5 2707.32 120.178 8
 2 -1 -5 2717.55 118.4 3
 2 -1 -5 2651.98 115.404 4
 -2 -1 5 2765.63 116.979 3
 2 -1 -4 39677.4 1342.89 7
 2 -1 -4 39944.9 1351.38 5
 2 -1 -4 42234.1 1358.16 3
 2 -1 -4 39047.9 1350.98 4
 -2 -1 4 43938.4 1356.02 1
 -2 -1 4 44120.4 1353.2 6
 2 -1 -4 39218.8 1342.77 6
 -2 -1 4 42919.2 1352.4 7
 2 -1 -4 38547.1 1354.88 8
 -2 -1 4 43275 1354.2 8
 2 -1 -4 44818.1 1353.97 3
 -2 -1 4 43205.1 1357.32 3
 2 -1 -3 5862.81 210.144 5
 2 -1 -3 5692.99 215.627 3
 2 -1 -3 5706.99 203.393 6
 2 -1 -3 6093.54 212.691 1
 -2 -1 3 5965.58 211.441 1
 -2 -1 3 6283.41 213.45 7
 2 -1 -3 5872.33 203.853 7
 2 -1 -3 5453.32 208.841 4
 -2 -1 3 6412.88 213.923 6
 2 -1 -3 5893.15 214.389 8
 -2 -1 3 6275.68 216.915 3
 2 -1 -2 8005.89 280.763 6
 2 -1 -2 8439.49 291.566 3
 2 -1 -2 8514.29 279.618 2
 2 -1 -2 8098.47 284.641 4
 2 -1 -2 8557.03 280.183 7
 2 -1 -2 8793.88 289.239 1
 -2 -1 2 8733.9 290.319 6
 2 -1 -2 8021.78 284.293 5
 2 -1 -2 8292.25 280.17 6
 -2 -1 2 8880.64 290.788 7
 2 -1 -2 8444.65 288.703 8
 -2 -1 2 8487.19 284.586 1
 2 -1 -2 8755.51 289.234 3
 2 -1 -2 8083.07 281.353 7
 -2 -1 2 8370.33 290.912 3
 2 -1 -1 4819.03 171.967 5
 2 -1 -1 5008.24 176.093 1
 2 -1 -1 4787.56 176.017 3
 2 -1 -1 4943.56 170.706 5
 -2 -1 1 4965.3 168.668 1
 2 -1 -1 4539.38 171.303 4
 2 -1 -1 4975.28 170.273 7
 -2 -1 1 4884.05 179.11 4
 2 -1 -1 4899.63 170.124 6
 2 -1 -1 5251.65 170.719 2
 2 -1 -1 5134.22 175.458 3
 -2 -1 1 5017.68 179.844 5
 2 -1 -1 4896.71 173.591 8
 2 -1 -1 5116.76 171.178 4
 -2 -1 1 4865.78 176.37 3
 -2 -1 0 1652.25 73.7583 5
 -2 -1 0 1674.49 73.8806 4
 -2 -1 0 1756.77 74.3504 7
 2 -1 0 1685.38 69.9012 1
 2 -1 0 1702.97 68.021 6
 -2 -1 0 1560.12 59.2592 1
 2 -1 0 1637.86 67.0091 3
 2 -1 0 1834.45 67.1352 4
 2 -1 0 1716.32 68.4037 7
 -2 -1 0 1737.57 73.5119 2
 -2 -1 0 1612.25 73.1686 6
 2 -1 0 1770.06 66.758 5
 2 -1 0 1612.1 70.1574 1
 2 -1 0 1657.42 66.1004 3
 -2 -1 0 1630.34 68.1394 3
 2 -1 1 13473.1 427.531 5
 -2 -1 -1 12443.7 433.864 7
 2 -1 1 11774.6 420.002 3
 2 -1 1 14103.8 431.303 7
 2 -1 1 13794.9 427.874 4
 -2 -1 -1 13439.2 435.655 4
 -2 -1 -1 13233.6 424.121 3
 -2 -1 -1 13469.3 434.638 8
 -2 -1 -1 13203.7 435.04 5
 -2 -1 -1 12907.1 435.106 6
 2 -1 1 14106.2 431.239 6
 2 -1 1 13016.9 430.641 1
 -2 -1 -1 12998.5 434.239 2
 -2 -1 -1 11257.3 415.893 1
 2 -1 1 13123.9 420.137 3
 2 -1 1 13413.9 423.022 8
 -2 -1 -2 4031.8 147.354 5
 2 -1 2 4040.71 139.39 5
 2 -1 2 3563.17 123.765 3
 -2 -1 -2 3932.82 130.342 3
 -2 -1 -2 3756.68 144.67 2
 -2 -1 -2 3922.18 146.454 4
 -2 -1 -2 3967.46 146.354 7
 2 -1 2 4274.5 140.357 4
 2 -1 2 4199.07 143.347 7
 -2 -1 -2 3795.16 145.3 6
 2 -1 2 3867.24 141.173 1
 -2 -1 -2 4218.6 129.407 1
 2 -1 2 4205.92 143.277 6
 -2 -1 -2 3783.98 144.353 8
 2 -1 2 3959.99 133.379 8
 -2 -1 -3 20394.1 705.332 5
 -2 -1 -3 21171.3 684.192 3
 2 -1 3 20874.1 698.994 5
 2 -1 3 21713.2 692.231 8
 -2 -1 -3 20309.2 705.213 4
 2 -1 3 21187.5 698.939 4
 2 -1 3 20756.8 700.572 1
 -2 -1 -3 20975.9 704.247 8
 -2 -1 -3 22163.6 689.117 1
 -2 -1 -3 20787.6 705.068 2
 -2 -1 -3 20236.1 704.97 7
 -2 -1 -3 20625.7 705.188 6
 -2 -1 -4 14972.5 496.476 5
 2 -1 4 14192.7 477.987 8
 -2 -1 -4 14538 494.538 6
 -2 -1 -4 14157.3 475.501 1
 -2 -1 -4 14370.5 495.564 4
 -2 -1 -4 14394.6 494.018 2
 -2 -1 -4 13740.1 490.8 8
 2 -1 4 13558.2 486.459 1
 -2 -1 -4 14745.4 494.899 7
 2 -1 5 1902.67 96.6334 1
 -2 -1 -5 1972.66 100.27 8
 -2 -1 -5 2114.35 103.613 6
 -2 -1 -5 1996.05 104.463 4
 -2 -1 -5 1959.58 102.486 5
 -2 -1 -5 2213.32 104.328 7
 -2 -1 -6 2279.14 118.922 5
 -2 -1 -6 2360.01 120.199 4
 -2 -1 -6 2240.91 116.926 7
 2 -1 6 2422 115.283 1
 -2 -1 -6 2451.58 119.686 6
 -2 -1 -6 2352.33 116.815 8
 2 -1 7 581.387 53.1044 1
 -2 -1 -7 476.016 52.6025 5
 -2 -1 -7 543.676 54.0394 8
 -2 -1 -7 611.283 57.345 7
 -2 -1 -7 571.813 57.4671 4
 -2 -1 -7 387.888 48.7956 6
 -2 -1 -8 1095.39 82.1813 4
 2 -1 8 940.612 71.5544 1
 -2 -1 -8 778.314 68.6927 8
 -2 -1 -8 917.152 76.6132 5
 -2 -1 -8 945.158 76.5124 6
 -2 -1 -8 911.286 75.0804 7
 -2 -1 -9 897.791 80.945 5
 -2 -1 -9 833.381 74.5898 8
 -2 -1 -9 909.637 78.3453 7
 -2 -1 -9 927.032 82.5256 4
 -2 -1 -9 958.719 77.8364 6
 2 -1 9 886.484 73.077 1
 -2 -1 -10 456.559 60.8788 7
 -2 -1 -10 430.149 60.9833 5
 -2 -1 -10 438.436 60.334 4
 -2 -1 -10 515.315 60.861 8
 -2 -1 -10 580.285 65.6738 6
 -2 -1 -11 316.895 54.0876 5
 -2 -1 -11 351.522 59.1598 4
 -2 -1 -11 239.671 49.42 8
 -2 -1 -12 93.1524 45.572 4
 -2 -1 -12 18.6067 39.8085 5
 -2 -1 -13 -9.98493 38.3671 5
 -2 -1 -13 -9.99771 38.4161 4
 2 0 -14 82.8133 37.9312 8
 2 0 -14 155.647 51.6858 4
 2 0 -14 97.8662 45.0584 5
 -2 0 14 84.6695 44.736 1
 -2 0 13 367.684 59.9553 1
 2 0 -13 271.311 56.0352 5
 2 0 -13 255.878 51.4749 8
 2 0 -13 332.287 61.003 4
 2 0 -12 149.237 41.9612 8
 -2 0 12 144.948 46.5667 1
 2 0 -12 205.797 52.8106 4
 2 0 -12 149.122 47.3856 5
 2 0 -11 521.598 67.9519 5
 2 0 -11 601.452 67.583 8
 -2 0 11 720.516 71.2129 1
 2 0 -11 541.165 69.0471 4
 2 0 -10 3083.18 160.028 5
 2 0 -10 2968.68 157.979 4
 -2 0 10 2976.72 155.887 1
 2 0 -10 3091.13 158.267 8
 2 0 -9 4716.95 208.879 5
 2 0 -9 4761.85 207.853 8
 2 0 -9 4632.62 207.186 4
 2 0 -9 4553.03 196.625 7
 2 0 -9 4668.05 198.413 6
 -2 0 9 4552.23 205.046 1
 2 0 -8 2470.35 128.24 5
 -2 0 8 2429.1 126.948 1
 2 0 -8 2624.48 122.532 7
 2 0 -8 2343.32 119.531 6
 2 0 -8 2441.21 127.752 8
 2 0 -8 2525.32 128.339 4
 -2 0 8 2510.83 119.995 3
 -2 0 7 16886.8 588.871 1
 2 0 -7 16973.4 589.766 5
 2 0 -7 17152.4 590.419 4
 2 0 -7 16956.3 580.35 7
 2 0 -7 17286.8 590.842 8
 2 0 -7 16582.3 579.594 6
 -2 0 7 16501.6 580.574 3
 2 0 -6 790.959 58.2916 5
 2 0 -6 896.201 54.7895 7
 2 0 -6 837.487 58.9897 4
 2 0 -6 954.16 61.3134 8
 -2 0 6 848.209 56.7071 3
 2 0 -6 703.853 50.9983 6
 -2 0 6 1016.61 62.5113 1
 2 0 -5 493.94 40.7464 4
 -2 0 5 424.516 32.471 6
 2 0 -5 438.658 38.5314 5
 2 0 -5 387.656 33.6685 7
 2 0 -5 421.454 39.2284 8
 -2 0 5 456.508 39.2158 1
 -2 0 5 492.335 33.838 7
 -2 0 5 390.587 36.1876 3
 2 0 -5 387.267 33.5275 6
 2 0 -4 3053.92 125.244 6
 2 0 -4 3003.23 129.108 5
 -2 0 4 3286.21 127.847 5
 -2 0 4 3410.15 128.703 4
 2 0 -4 3099.55 131.618 8
 2 0 -4 3254.23 126.663 7
 2 0 -4 2896.91 128.569 4
 2 0 -4 3494.9 128.888 1
 -2 0 4 3236.03 130.747 1
 -2 0 4 3312.91 124.351 7
 -2 0 4 3285.21 124.272 6
 -2 0 4 3128.68 130.025 3
 2 0 -4 3397.61 128.286 3
 -2 0 3 1973.82 83.2776 1
 2 0 -3 1801.39 82.58 5
 -2 0 3 1943.15 81.9466 5
 2 0 -3 1845.66 79.486 7
 2 0 -3 1937.54 80.5993 1
 2 0 -3 1753.45 81.954 4
 2 0 -3 1929.06 85.0262 8
 2 0 -3 1710.37 78.2548 6
 -2 0 3 2120.18 80.6262 6
 -2 0 3 2015.76 79.6832 7
 -2 0 3 1928.8 81.8895 4
 -2 0 3 2010.2 85.2302 3
 2 0 -2 657.775 37.2573 7
 2 0 -2 633.839 39.0635 5
 -2 0 2 669.045 37.8096 5
 -2 0 2 672.322 37.742 4
 -2 0 2 715.415 38.0288 1
 2 0 -2 763.424 37.6114 1
 -2 0 2 732.833 37.6228 7
 -2 0 2 726.474 37.1737 6
 2 0 -2 619.128 38.5662 4
 2 0 -2 684.23 40.0684 8
 2 0 -2 613.593 36.4035 6
 -2 0 2 701.511 39.3 3
 2 0 -2 688.131 38.0286 3
 -2 0 1 807.951 39.5503 1
 2 0 -1 768.398 38.0187 1
 2 0 -1 851.178 40.045 2
 2 0 -1 850.129 40.7333 6
 2 0 -1 794.291 40.2533 5
 2 0 -1 858.919 40.5207 7
 2 0 -1 834.582 40.6787 4
 2 0 -1 791.033 42.113 7
 -2 0 1 824.09 42.7341 4
 -2 0 1 769.297 40.51 3
 2 0 -1 757.893 41.2857 6
 2 0 -1 829.954 39.966 3
 -2 0 1 844.262 42.8955 5
 2 0 0 4710.63 163.956 5
 2 0 0 4503.55 157.929 1
 2 0 0 4731.21 163.995 2
 2 0 0 4652.94 163.821 4
 -2 0 0 4460.71 165.067 7
 -2 0 0 4644.27 164.893 5
 2 0 0 4484.65 158.825 3
 2 0 0 4474.53 162.169 8
 2 0 0 4711.57 164.429 6
 2 0 0 4714.36 164.289 7
 -2 0 0 4554.37 165.427 6
 -2 0 0 4549.91 164.558 2
 2 0 0 4594.29 158.844 1
 -2 0 0 4660.94 160.015 3
 -2 0 0 4584.06 164.948 4
 2 0 1 874.32 44.9411 5
 2 0 1 926.987 46.098 4
 2 0 1 910.976 43.3243 8
 2 0 1 955.648 46.176 7
 -2 0 -1 895.365 46.7943 4
 -2 0 -1 855.696 47.6662 7
 2 0 1 947.159 46.0383 6
 -2 0 -1 855.546 47.5037 2
 -2 0 -1 944.381 48.69 6
 2 0 1 815.003 39.6292 1
 -2 0 -1 849.237 46.1052 5
 -2 0 -1 918.806 39.8733 1
 -2 0 -1 873.288 37.0637 3
 -2 0 -1 858.654 44.102 8
 2 0 1 883.604 36.4804 3
 2 0 2 383.776 28.479 5
 -2 0 -2 304.675 29.1647 5
 -2 0 -2 451.882 29.9051 8
 2 0 2 382.03 29.0015 4
 -2 0 -2 351.153 30.9323 7
 2 0 2 310.99 23.3217 1
 -2 0 -2 352.347 30.4007 4
 -2 0 -2 370.916 24.4628 1
 -2 0 -2 361.458 31.0569 6
 -2 0 -2 437.639 33.012 2
 2 0 2 362.696 27.2989 8
 -2 0 -3 2407.96 104.547 5
 2 0 3 2438.56 97.9206 8
 -2 0 -3 2216.87 103.587 7
 -2 0 -3 2340.16 99.9945 8
 -2 0 -3 2555.98 95.9389 1
 2 0 3 2303.78 95.7156 1
 -2 0 -3 2369.83 105.255 6
 -2 0 -3 2436.03 104.763 4
 2 0 4 11672.9 411.809 1
 -2 0 -4 12370.1 424.174 4
 -2 0 -4 11747.9 415.628 8
 -2 0 -4 12103.2 409.681 1
 -2 0 -4 12222.5 424.353 6
 -2 0 -4 12460.3 424.546 7
 -2 0 -4 12125.5 422.835 5
 -2 0 -5 36416.1 1169.16 5
 -2 0 -5 34475 1159.95 8
 -2 0 -5 35978.4 1169.06 7
 2 0 5 32810.4 1154.41 1
 -2 0 -5 36940.4 1170.68 6
 -2 0 -5 35672.6 1168.42 4
 -2 0 -6 8030.48 316.846 6
 -2 0 -6 8025.42 316.674 7
 -2 0 -6 8578.19 320.273 4
 -2 0 -6 8862.49 321.502 5
 -2 0 -6 8800.08 313.034 8
 2 0 6 8294.08 307.528 1
 -2 0 -7 1820.83 106.526 5
 -2 0 -7 1936.09 107.879 6
 -2 0 -7 1599.54 102.607 4
 2 0 7 1835.72 97.3315 1
 -2 0 -7 1925.9 100.967 8
 -2 0 -7 1915.81 108.072 7
 -2 0 -8 2883.59 150.447 5
 -2 0 -8 2769.69 146.577 6
 2 0 8 3003.89 141.559 1
 -2 0 -8 3012.34 152.004 4
 -2 0 -8 2876.56 148.319 7
 -2 0 -8 3050.26 144.036 8
 -2 0 -9 216.9 43.2628 5
 -2 0 -9 87.6976 38.5338 6
 -2 0 -9 76.2352 32.0714 8
 -2 0 -9 147.643 42.6376 7
 -2 0 -9 90.889 33.87 4
 -2 0 -10 643.713 72.2338 4
 -2 0 -10 488.97 67.121 5
 -2 0 -10 479.632 63.1132 7
 -2 0 -10 473.555 65.3699 6
 -2 0 -11 25.4183 39.5639 5
 -2 0 -11 -8.0089 34.2522 7
 -2 0 -11 32.2148 35.0994 6
 -2 0 -11 93.2766 42.6687 4
 -2 0 -12 302.761 55.5287 7
 -2 0 -12 276.057 59.9759 5
 -2 0 -12 276.325 61.9879 4
 -2 0 -12 295.62 58.1382 6
 -2 0 -13 810.998 90.2328 5
 -2 0 -13 623.691 81.0683 4
 2 1 -14 29.5192 45.218 5
 -2 1 14 65.3461 44.9934 1
 2 1 -14 58.6233 49.1807 4
 2 1 -13 54.4316 42.3683 4
 -2 1 13 17.4294 31.024 1
 2 1 -13 73.0447 47.8249 5
 2 1 -13 32.7329 32.2048 8
 2 1 -12 1466.87 111.978 5
 2 1 -12 1396.56 107.111 8
 -2 1 12 1414.37 108.686 1
 2 1 -12 1466.8 112.763 4
 2 1 -11 1033.52 89.3004 5
 -2 1 11 1036.88 89.1925 1
 2 1 -11 962.94 83.6867 7
 2 1 -11 1074 88.8861 4
 2 1 -11 1068.03 85.7704 8
 2 1 -11 995.736 84.1935 6
 2 1 -10 41.6916 36.8535 4
 2 1 -10 6.97523 38.3565 5
 2 1 -10 -6.39446 25.7208 8
 2 1 -10 12.2677 28.6421 6
 2 1 -10 18.4228 31.7468 7
 -2 1 10 66.472 30.0207 1
 2 1 -9 9084.42 342.91 5
 -2 1 9 8413.38 335.889 1
 2 1 -9 8623.67 333.208 7
 2 1 -9 8522.04 339.228 4
 2 1 -9 8493.11 332.277 6
 2 1 -9 8700.6 335.55 8
 -2 1 8 2974.84 142.042 1
 2 1 -8 2833.93 138.681 8
 2 1 -8 2800.14 141.3 5
 2 1 -8 2843.16 137.022 7
 2 1 -8 2800.32 141.355 4
 2 1 -8 2816.72 136.619 6
 2 1 -7 9456.22 343.253 5
 -2 1 7 9025.81 339.935 1
 2 1 -7 9174.22 339.706 8
 2 1 -7 9017.47 336.628 7
 2 1 -7 9192.31 341.903 4
 2 1 -7 8890.52 336.247 6
 2 1 -6 3119.69 139.869 5
 -2 1 6 3267.62 140.192 1
 2 1 -6 3041.26 137.017 8
 2 1 -6 3327.94 138.194 7
 2 1 -6 2934.87 138.396 4
 2 1 -6 3026.87 135.515 6
 -2 1 5 3037.93 111.577 6
 -2 1 5 3091.86 111.988 7
 2 1 -5 2693.71 120.769 7
 2 1 -5 2455.14 120.104 8
 2 1 -5 2764.67 121.419 6
 2 1 -5 2900.46 125.955 5
 2 1 -5 2654.59 123.75 4
 -2 1 5 2701.34 122.767 1
 -2 1 4 42850.7 1362.96 5
 -2 1 4 43027.5 1371.55 1
 -2 1 4 43081.8 1356.29 6
 2 1 -4 40382.2 1369.74 8
 2 1 -4 43279.8 1364.28 1
 2 1 -4 40153.1 1367.7 7
 -2 1 4 42344.9 1355.84 7
 2 1 -4 43765.4 1366.05 3
 -2 1 4 42971.5 1362.94 4
 2 1 -4 39452.7 1369.35 5
 2 1 -4 39701 1369.44 4
 2 1 -4 39961.1 1367.62 6
 2 1 -3 5912.96 221.356 5
 -2 1 3 6191.27 214.635 5
 2 1 -3 5683.83 221.267 8
 2 1 -3 5680.95 219.469 7
 -2 1 3 6187.27 222.255 1
 2 1 -3 5568.61 220.217 4
 -2 1 3 6311.7 209.718 7
 -2 1 3 6387.59 209.79 6
 2 1 -3 5808.07 219.815 6
 -2 1 3 6495.79 215.61 4
 2 1 -3 6260.66 215.35 1
 -2 1 3 6427.77 218.855 8
 -2 1 3 5974.2 221.247 3
 2 1 -2 8323.16 295.627 5
 -2 1 2 8607.24 287.977 5
 -2 1 2 8482.06 294.739 1
 -2 1 2 8772.88 291.07 8
 2 1 -2 8462.74 296.144 4
 2 1 -2 8310.76 295.075 7
 2 1 -2 8143.97 294.637 6
 2 1 -2 8731.57 287.204 1
 -2 1 2 8499.2 288.062 4
 2 1 -1 4758.57 183.091 6
 -2 1 1 5169.67 183.223 1
 2 1 -1 5035.03 171.937 1
 2 1 -1 4935.41 183.963 7
 -2 1 1 5282.2 176.084 7
 2 1 -1 4954.57 179.69 2
 -2 1 1 5140.33 175.719 6
 2 1 -1 5159.93 179.759 3
 -2 1 1 5135.48 175.026 2
 -2 1 0 1757.31 68.7051 5
 -2 1 0 1787.83 70.8768 7
 2 1 0 1497.5 59.5054 1
 2 1 0 1829.71 69.1148 3
 -2 1 0 1735.16 68.7153 4
 -2 1 0 1846.87 71.4633 6
 2 1 0 1830.65 73.2985 8
 -2 1 0 1740.09 70.087 2
 -2 1 -1 13639.9 449.323 5
 2 1 1 13689.6 444.143 3
 2 1 1 13820.4 452.451 8
 2 1 1 12959.6 436.694 1
 -2 1 -1 13258.7 452.208 7
 -2 1 -1 13947.9 449.807 4
 -2 1 -1 13793.7 453.158 6
 -2 1 -1 13940.8 449.603 1
 -2 1 -1 13549 444.473 8
 2 1 2 4137.13 152.678 8
 2 1 2 4118.51 141.035 3
 -2 1 -2 4018.66 145.321 8
 -2 1 -2 4067.94 151.772 5
 2 1 2 4227.14 153.689 7
 -2 1 -2 3781.19 153.843 7
 2 1 2 3934.03 139.778 1
 2 1 2 4165.33 153.607 6
 -2 1 -2 4201.31 156.088 6
 -2 1 -2 3913.31 149.032 1
 -2 1 -2 4202.79 152.453 4
 -2 1 -3 21999.2 712.438 5
 2 1 3 21698.4 693.69 3
 -2 1 -3 21948.3 712.545 4
 2 1 3 20535.5 698.604 1
 -2 1 -3 21473.9 716.374 6
 -2 1 -3 20900.4 715.228 7
 -2 1 -3 21755.2 707.918 1
 -2 1 -3 20995.2 703.606 8
 -2 1 -4 14200.8 494.107 5
 -2 1 -4 14251.1 484.821 8
 -2 1 -4 14216.7 493.956 4
 2 1 4 13527.8 480.046 1
 -2 1 -4 15183.5 500.228 7
 -2 1 -4 15695.1 501.576 6
 -2 1 -5 1985.8 100.052 5
 -2 1 -5 2088.09 104.476 7
 -2 1 -5 1970.29 100.275 4
 2 1 5 1877.89 88.0486 1
 -2 1 -5 2215.37 106.724 6
 -2 1 -5 1866.76 89.7957 8
 -2 1 -6 2438.34 122.425 5
 -2 1 -6 2382.3 110.587 8
 -2 1 -6 2443.33 122.483 4
 -2 1 -6 2486.5 124.782 7
 -2 1 -6 2624.34 126.432 6
 2 1 6 2348.59 109.255 1
 -2 1 -7 513.831 55.1889 5
 -2 1 -7 527.182 48.3503 8
 -2 1 -7 566.322 58.7291 7
 -2 1 -7 599.311 59.0512 4
 -2 1 -7 574.138 59.8729 6
 -2 1 -8 1003.89 76.8055 5
 -2 1 -8 865.723 74.4987 6
 -2 1 -8 855.951 74.6171 7
 -2 1 -8 842.287 72.5954 4
 -2 1 -9 852.507 77.9503 6
 -2 1 -9 969.217 82.8957 5
 -2 1 -9 938.312 81.6506 7
 -2 1 -9 815.496 77.5322 4
 -2 1 -10 461.504 63.0595 5
 -2 1 -10 523.201 67.8462 7
 -2 1 -10 575.888 68.022 4
 -2 1 -10 526.611 68.2621 6
 -2 1 -11 436.728 60.6543 6
 -2 1 -11 277.654 54.2707 5
 -2 1 -11 292.493 54.3711 7
 -2 1 -11 319.458 61.1195 4
 -2 1 -12 118.255 44.6172 5
 -2 1 -12 125.577 45.2668 7
 -2 1 -12 109.24 44.6503 4
 -2 1 -12 90.1734 50.845 6
 -2 1 -13 66.6433 39.9593 7
 -2 1 -13 88.0699 47.8808 5
 -2 1 -13 38.3036 44.7454 6
 -2 1 -13 48.9647 45.0149 4
 2 2 -14 297.384 58.9618 5
 2 2 -14 305.098 60.2705 4
 -2 2 14 296.579 58.9341 1
 -2 2 13 286.628 54.7123 1
 2 2 -13 303.907 60.3926 5
 2 2 -13 484.988 70.8203 4
 2 2 -13 404.982 62.3122 6
 2 2 -12 220.175 52.5358 7
 2 2 -12 162.977 51.066 5
 2 2 -12 119.437 47.1336 4
 2 2 -12 165.492 48.3258 6
 -2 2 12 80.5397 45.0323 1
 2 2 -11 -15.6225 33.4002 4
 2 2 -11 -15.6877 33.5395 5
 2 2 -11 -6.80667 29.66 8
 -2 2 11 -22.2002 36.7115 1
 2 2 -11 -21.8602 35.1015 7
 2 2 -11 -14.5894 37.2082 6
 2 2 -10 1941.82 119.211 5
 2 2 -10 1885.64 117.753 7
 2 2 -10 1764.5 115.712 4
 2 2 -10 1769.41 109.739 8
 -2 2 10 1859.41 117.34 1
 2 2 -10 1760.57 114.874 6
 2 2 -9 1086.48 85.6039 5
 -2 2 9 1166.96 85.1659 1
 2 2 -9 1107.08 81.1128 8
 2 2 -9 1111.83 84.1578 7
 2 2 -9 1273.54 89.2683 4
 2 2 -9 1278.03 88.7897 6
 2 2 -8 2752.83 141.279 5
 2 2 -8 2908.2 142.255 7
 2 2 -8 2853.77 140.507 6
 2 2 -8 2862.82 138.058 8
 -2 2 8 2832.94 141.722 1
 2 2 -8 2695.82 141.634 4
 2 2 -7 448.849 49.4345 5
 2 2 -7 366.54 46.1835 7
 -2 2 7 448.435 47.9119 1
 2 2 -7 439.02 49.2725 4
 2 2 -7 372.686 43.0969 8
 2 2 -7 397.492 47.1067 6
 2 2 -6 1127.88 72.863 5
 -2 2 6 1119.48 71.0849 1
 2 2 -6 1028.82 69.602 7
 2 2 -6 1211.1 75.5263 4
 2 2 -6 1067.85 70.3901 6
 2 2 -6 1194.62 70.0136 8
 2 2 -5 8149.85 295.843 5
 2 2 -5 7977.24 295.167 7
 2 2 -5 8508.73 297.57 6
 2 2 -5 8205.74 296.349 4
 -2 2 5 8017.74 294.955 1
 2 2 -5 7329.29 289.591 8
 2 2 -4 973.89 59.1057 5
 -2 2 4 1030.41 50.7638 5
 -2 2 4 941.965 58.7141 1
 2 2 -4 937.928 56.3626 8
 2 2 -4 843.859 56.6673 6
 2 2 -4 943.675 58.1535 7
 -2 2 4 991.147 42.6046 7
 -2 2 4 942.768 49.8407 4
 2 2 -4 973.343 58.4736 4
 -2 2 4 1066.3 43.4838 6
 2 2 -3 13584.9 447.847 3
 -2 2 3 13823.6 439.591 5
 2 2 -3 13303.6 452.325 5
 -2 2 3 13596.8 454.045 1
 2 2 -3 13463 452.659 4
 2 2 -3 12985 451.115 8
 -2 2 3 14024.7 446.355 8
 2 2 -3 12624.1 451.874 6
 -2 2 3 11830.7 430.165 7
 -2 2 3 13905.4 439.851 4
 2 2 -3 13834.4 443.251 1
 -2 2 3 13280.2 430.194 6
 2 2 -3 13058.2 452.898 7
 -2 2 2 2326.05 85.8475 5
 2 2 -2 2226.2 98.6644 4
 -2 2 2 2380.78 95.9326 3
 -2 2 2 2142.16 98.6958 1
 -2 2 2 2296.38 90.7246 8
 2 2 -2 2392.66 96.2459 4
 2 2 -2 2297.42 98.9131 5
 2 2 -2 2222.74 99.0739 6
 -2 2 2 2334.79 86.0696 4
 2 2 -2 2043.37 97.8529 7
 2 2 -2 2296.76 88.0558 1
 2 2 -2 2386.2 96.3585 5
 -2 2 1 49171 1574.11 1
 -2 2 1 48888.7 1556.84 7
 2 2 -1 46265.5 1573.28 6
 2 2 -1 50263.6 1569.61 8
 2 2 -1 45724.6 1573.57 7
 2 2 -1 47561.9 1555.32 1
 -2 2 1 46717.3 1556.83 6
 -2 2 1 48758 1567.12 3
 2 2 -1 48855.4 1568.02 3
 -2 2 1 49398.8 1556.68 2
 -2 2 1 47596.7 1559.72 8
 2 2 -1 50865.1 1569.65 4
 2 2 -1 50722.8 1569.3 5
 -2 2 0 10055.5 334.824 5
 2 2 0 10287.4 346.916 5
 2 2 0 9881.44 351.471 7
 2 2 0 9977.4 344.097 3
 -2 2 0 9920.36 339.916 6
 -2 2 0 10297.9 342.431 3
 2 2 0 10270.4 347.608 7
 -2 2 0 10058.6 340.184 7
 2 2 0 10622.9 348.311 6
 2 2 0 10292.9 346.203 2
 2 2 0 9627.61 350.031 6
 2 2 0 10671.1 347.922 4
 -2 2 0 10138.3 335.291 4
 2 2 1 3916.84 141.807 3
 2 2 1 3832.7 146.315 4
 -2 2 -1 3705.75 137.468 3
 -2 2 -1 3947.74 138.298 4
 2 2 1 4015.22 146.701 7
 -2 2 -1 3751.04 143.925 7
 2 2 1 3780.27 145.995 5
 2 2 1 3786.02 145.579 6
 -2 2 -1 3733.31 143.802 6
 -2 2 -1 3915.04 138.178 5
 2 2 1 3975.31 145.839 2
 -2 2 -1 3897.88 146.042 1
 2 2 2 560.905 37.4212 5
 -2 2 -2 497.654 31.9102 5
 2 2 2 529.068 31.5222 3
 -2 2 -2 533.472 27.6011 3
 -2 2 -2 515.456 25.4684 8
 -2 2 -2 571.911 38.6958 7
 -2 2 -2 530.431 32.6017 4
 2 2 2 423.204 34.4214 7
 2 2 2 465.318 35.7007 6
 -2 2 -2 483.927 36.2458 6
 2 2 2 516.257 36.0951 4
 -2 2 -2 501.089 35.1298 1
 2 2 2 444.361 21.8131 1
 2 2 2 473.302 34.88 2
 -2 2 -3 1663.8 74.9636 5
 -2 2 -3 1488.77 78.0727 7
 2 2 3 1667.49 68.1045 3
 -2 2 -3 1575.93 64.6276 8
 -2 2 -3 1546.29 73.4493 4
 2 2 3 1457.26 61.9561 1
 -2 2 -3 1641.79 80.0145 6
 -2 2 -4 5934.98 230.191 5
 2 2 4 5899.28 217.103 1
 -2 2 -4 6156.5 219.224 8
 -2 2 -4 6195.56 231.57 4
 -2 2 -4 6930.47 241.717 6
 -2 2 -4 6726.87 240.665 7
 -2 2 -5 2670.46 122.398 5
 -2 2 -5 2811.17 123.702 4
 -2 2 -5 2536.83 125.993 7
 -2 2 -5 2660.72 127.676 6
 -2 2 -6 5068.61 206.211 5
 -2 2 -6 5144.8 206.738 4
 -2 2 -6 4792.49 209.165 7
 -2 2 -6 4957.27 210.679 6
 -2 2 -7 5161.66 217.333 5
 -2 2 -7 4998.68 215.413 4
 -2 2 -7 5071.89 221.295 7
 -2 2 -7 5271.39 223.64 6
 -2 2 -8 762.887 66.8446 5
 -2 2 -8 668.487 69.2216 7
 -2 2 -8 711.832 65.4635 4
 -2 2 -8 584.152 65.9555 6
 -2 2 -9 163.592 42.7526 5
 -2 2 -9 152.596 44.2893 7
 -2 2 -9 230.981 46.263 4
 -2 2 -9 160.267 42.2467 6
 -2 2 -10 1114.88 91.7817 5
 -2 2 -10 1092.12 93.4874 7
 -2 2 -10 1059.87 90.5327 4
 -2 2 -10 976.821 90.9176 6
 -2 2 -11 269.14 53.7428 7
 -2 2 -11 258.139 49.6829 4
 -2 2 -11 258.67 51.7109 5
 -2 2 -11 349.349 58.3484 6
 -2 2 -12 198.695 53.8566 5
 -2 2 -12 232.97 60.7973 7
 -2 2 -12 135.319 48.1852 4
 -2 2 -12 177.915 54.7006 6
 -2 2 -13 135.239 50.132 4
 -2 2 -13 164.107 53.2672 5
 -2 2 -13 89.1991 49.3692 7
 -2 2 -13 199.209 60.9668 6
 2 3 -14 69.579 47.147 5
 2 3 -14 -9.49596 45.0415 7
 2 3 -14 9.87341 43.0179 4
 2 3 -14 -18.9813 41.3505 6
 2 3 -13 64.9069 46.0079 4
 2 3 -13 53.8354 41.2204 7
 2 3 -13 -9.32751 46.2811 5
 2 3 -13 26.9343 39.1306 6
 -2 3 12 32.5417 32.7517 1
 2 3 -12 34.6853 34.9043 5
 2 3 -12 67.3212 43.5237 7
 2 3 -12 51.7339 37.5989 4
 2 3 -12 84.2865 46.3693 6
 2 3 -11 605.32 73.1755 5
 -2 3 11 698.632 72.9308 1
 2 3 -11 611.225 74.432 7
 2 3 -11 517.557 70.6077 6
 2 3 -11 547.401 70.7505 4
 2 3 -10 2351.58 138.359 5
 -2 3 10 2258.79 133.662 1
 2 3 -10 2412.91 139.231 7
 2 3 -10 2306.27 137.98 4
 2 3 -10 2476.49 140.909 6
 2 3 -9 851.325 67.6104 8
 2 3 -9 850.432 75.9328 5
 -2 3 9 701.502 68.6325 1
 2 3 -9 884.791 76.6504 7
 2 3 -9 892.65 77.6145 4
 2 3 -9 867.028 75.8045 6
 2 3 -8 1495.37 95.873 5
 2 3 -8 1534.52 90.0193 8
 -2 3 8 1463.98 94.0185 1
 2 3 -8 1343.6 93.9327 7
 2 3 -8 1420.64 93.1084 4
 2 3 -8 1428.3 94.9678 6
 2 3 -7 1390.14 89.6783 5
 -2 3 7 1485.33 91.0285 1
 2 3 -7 1761.43 97.3929 4
 2 3 -7 1559.55 93.9833 7
 2 3 -7 1461.12 85.796 8
 2 3 -7 1436.98 92.0918 6
 2 3 -6 1733.36 94.7229 5
 -2 3 6 1658.04 93.3045 1
 2 3 -6 1782.58 96.7695 7
 2 3 -6 1597.89 91.8921 4
 2 3 -6 1650.62 94.774 6
 2 3 -6 1506.82 85.6383 8
 2 3 -5 3261.1 139.505 5
 -2 3 5 3094.7 138.828 1
 2 3 -5 3145.19 141.366 7
 2 3 -5 3307.29 140.079 4
 2 3 -5 3214.61 142.732 6
 2 3 -5 2726.76 130.884 8
 2 3 -4 3999.33 169.327 5
 -2 3 4 4345.62 172.613 1
 2 3 -4 4194.07 166.965 8
 2 3 -4 4241.96 173.351 7
 2 3 -4 4031.67 169.837 4
 2 3 -4 4447.1 174.578 6
 -2 3 3 12908.9 410.487 5
 2 3 -3 12039.9 427.591 5
 -2 3 3 12235.3 431.175 1
 2 3 -3 11662.9 430.289 6
 2 3 -3 11498.7 430.045 7
 -2 3 3 12713.4 410.294 4
 2 3 -3 12907.1 419.066 1
 -2 3 3 12193.9 419.013 8
 2 3 -3 11774.7 427.019 4
 -2 3 2 7757.16 267.294 1
 2 3 -2 7180.22 263.002 5
 -2 3 2 7274.42 241.826 5
 2 3 -2 6638.45 262.615 7
 2 3 -2 7548.91 259.179 4
 2 3 -2 7118.35 262.902 4
 -2 3 2 7218.94 241.711 4
 2 3 -2 7209.36 249.965 1
 2 3 -2 7008.95 264.176 6
 -2 3 2 7365.19 251.325 8
 2 3 -2 7516.27 258.95 5
 2 3 -1 10584 351.093 5
 2 3 -1 9946.38 354.667 5
 -2 3 1 10580.4 351.602 3
 2 3 -1 10223.6 351.562 8
 -2 3 1 10351.4 339.303 8
 -2 3 1 9950.57 335.504 7
 2 3 -1 10035.5 356.75 7
 -2 3 1 9922.01 335.321 6
 2 3 -1 10287 338.616 1
 2 3 -1 9989.73 356.483 6
 2 3 -1 10705.9 351.659 4
 2 3 -1 9950.2 354.714 4
 -2 3 0 9490.83 289.975 6
 2 3 0 8787.82 279.898 1
 2 3 0 9863.49 301.135 3
 2 3 0 10125 301.915 6
 2 3 0 10010.3 300.727 5
 -2 3 0 9927.68 298.103 3
 2 3 0 10188.3 300.319 2
 2 3 0 10156.4 302.22 8
 2 3 0 10221.5 301.773 4
 2 3 0 9843.05 301.184 7
 -2 3 0 9799.77 290.698 7
 2 3 0 9108.15 305.359 7
 2 3 0 9229.88 305.228 6
 2 3 1 18169.9 591.656 5
 -2 3 -1 18240.3 576.847 5
 2 3 1 17992 590.401 3
 -2 3 -1 18103.6 586.205 3
 2 3 1 17984.2 591.598 4
 -2 3 -1 18280.9 576.903 4
 2 3 1 17422 590.705 7
 -2 3 -1 16852.6 586.779 7
 2 3 1 17228.9 595.764 7
 2 3 1 17022 588.937 2
 2 3 1 17352.8 590.975 6
 -2 3 -1 16976.9 586.564 6
 2 3 1 16762.5 594.646 6
 -2 3 -2 1755.08 73.1905 5
 2 3 2 1761.66 78.7744 3
 -2 3 -2 1795.18 74.1346 3
 -2 3 -2 1638.42 80.7195 7
 -2 3 -2 1680.85 81.0967 6
 -2 3 -2 1801.6 73.4034 4
 -2 3 -3 930.95 52.6451 5
 2 3 3 964.115 53.1463 3
 -2 3 -3 1118.12 63.9869 7
 -2 3 -3 1000.53 61.4825 6
 -2 3 -3 1054.97 54.5032 4
 -2 3 -4 1498.67 76.1361 5
 -2 3 -4 1466.82 75.5676 4
 -2 3 -4 1725.33 87.6448 7
 -2 3 -4 1478.93 83.3283 6
 -2 3 -5 5040.12 198.908 4
 -2 3 -5 5003.28 208.227 7
 -2 3 -5 5004.18 207.584 6
 -2 3 -5 5048.33 199.057 5
 -2 3 -6 1859.81 98.6531 5
 -2 3 -6 1727.5 97.1568 4
 -2 3 -6 1704.26 103.868 7
 -2 3 -6 1975.11 107.371 6
 -2 3 -7 130.103 34.8364 5
 -2 3 -7 140.601 34.5877 7
 -2 3 -7 155.376 34.9424 4
 -2 3 -7 60.9909 30.4856 6
 -2 3 -8 160.696 37.7786 5
 -2 3 -8 236.938 44.5125 4
 -2 3 -8 170.758 42.8551 7
 -2 3 -8 157.027 42.8363 6
 -2 3 -9 400.766 58.2923 7
 -2 3 -9 483.262 59.3697 5
 -2 3 -9 613.515 66.1548 6
 -2 3 -9 567.608 63.6857 4
 -2 3 -10 945.063 85.8156 4
 -2 3 -10 993.094 87.2056 5
 -2 3 -10 811.034 85.5284 7
 -2 3 -10 937.687 91.2034 6
 -2 3 -11 123.192 42.5177 5
 -2 3 -11 98.93 44.0366 6
 -2 3 -11 89.7134 41.9511 7
 -2 3 -11 24.5925 33.0513 4
 -2 3 -12 535.616 76.5515 5
 -2 3 -12 625.942 81.8147 7
 -2 3 -12 659.373 82.0546 4
 -2 3 -12 599.267 80.4856 6
 -2 3 -13 820.9 89.6467 5
 -2 3 -13 724.754 87.0335 4
 2 4 -13 28.4501 46.3978 7
 2 4 -13 56.1995 39.3067 5
 2 4 -13 65.1752 44.8805 4
 2 4 -13 66.4812 45.0805 6
 2 4 -12 95.8686 48.5193 4
 2 4 -12 35.8359 41.878 7
 2 4 -12 80.661 41.2142 6
 2 4 -12 61.2683 39.5777 5
 2 4 -11 201.289 49.4875 7
 -2 4 11 153.64 40.5444 1
 2 4 -11 96.4869 40.7685 4
 2 4 -11 167.86 47.9988 6
 2 4 -11 209.917 50.0049 5
 2 4 -10 826.989 78.8181 5
 -2 4 10 781.061 77.0255 1
 2 4 -10 875.359 83.5854 7
 2 4 -10 713.875 78.2238 6
 2 4 -10 713.403 74.0518 4
 -2 4 9 941.624 79.6452 1
 2 4 -9 936.598 81.4181 5
 2 4 -9 772.698 75.333 4
 2 4 -9 1031.64 86.3156 6
 2 4 -9 1084.41 85.8208 7
 2 4 -8 2848.55 147.3 5
 -2 4 8 2934.23 148.688 1
 2 4 -8 2796.29 149.549 7
 2 4 -8 2928.6 147.605 4
 2 4 -8 2979.22 152.952 6
 -2 4 7 120.214 34.7746 1
 2 4 -7 166.811 37.9257 5
 2 4 -7 247.715 43.2198 7
 2 4 -7 225.011 40.4476 6
 2 4 -7 183.296 39.0557 4
 2 4 -6 1840.74 99.0591 5
 -2 4 6 1791.65 99.3991 1
 2 4 -6 1602.84 98.7239 7
 2 4 -6 1751 97.3994 4
 2 4 -6 1599.24 99.2356 6
 2 4 -6 1709.57 90.9368 8
 -2 4 5 95.9216 29.1025 1
 2 4 -5 140.732 31.4279 7
 2 4 -5 101.718 25.5917 5
 2 4 -5 93.4677 25.1531 4
 2 4 -5 175.447 32.8565 6
 2 4 -5 66.8882 21.8373 8
 -2 4 4 727.535 55.649 1
 2 4 -4 669.531 50.6348 4
 2 4 -4 665.716 54.1569 7
 2 4 -4 550.724 47.3473 5
 2 4 -4 597.78 52.5448 6
 2 4 -4 635.099 47.6508 8
 -2 4 3 1318.2 75.1239 1
 2 4 -3 1273.17 71.0619 5
 2 4 -3 1273.27 74.0106 7
 2 4 -3 1131.5 69.2141 4
 2 4 -3 1222.08 73.0642 6
 2 4 -2 3677.94 151.447 6
 -2 4 2 3314.04 149.457 1
 2 4 -2 3618.84 147.358 5
 2 4 -2 3621.67 150.823 7
 2 4 -2 3680.82 148.174 4
 2 4 -1 7136.88 271.914 7
 2 4 -1 7403.97 269.662 5
 2 4 -1 7634.65 274.595 6
 2 4 -1 7523.17 270.493 4
 -2 4 0 6450.25 224.51 7
 2 4 0 6399.43 240.182 7
 -2 4 0 6413.28 224.157 6
 2 4 0 6488.72 240.328 6
 -2 4 -1 9432.07 330.041 7
 2 4 1 9202.37 339.34 7
 -2 4 -1 9641.94 330.242 6
 2 4 1 9911.99 341.348 6
 -2 4 -2 3370.91 137.617 7
 2 4 2 3106.07 139.545 7
 -2 4 -2 3552.59 138.611 6
 2 4 2 3389.76 140.901 6
 -2 4 -3 1087.09 66.8173 7
 -2 4 -3 1167.05 67.4071 6
 -2 4 -4 10846.3 386.103 7
 -2 4 -4 10404.7 383.935 6
 -2 4 -5 3613.54 165.251 7
 -2 4 -5 3780.07 166.846 6
 -2 4 -6 3052.81 151.449 7
 -2 4 -6 3116.12 152.255 6
 -2 4 -7 6395.73 272.676 7
 -2 4 -7 6705.22 274.214 6
 -2 4 -8 7.13408 31.0888 7
 -2 4 -8 -35.5985 34.2993 6
 -2 4 -9 385.217 61.014 7
 -2 4 -9 518.541 65.7714 6
 -2 4 -10 497.085 72.3891 7
 -2 4 -10 660.035 77.2338 6
 -2 4 -11 677.25 82.0079 7
 -2 4 -11 715.141 84.9946 6
 -2 4 -12 347.393 67.0321 7
 -2 4 -12 368.304 71.7319 6
 2 5 -13 39.9626 48.1421 7
 2 5 -13 74.4555 42.0472 4
 2 5 -13 30.002 48.9143 6
 2 5 -13 28.0985 40.831 5
 2 5 -12 -8.75219 33.6521 4
 2 5 -12 35.1603 37.6016 5
 2 5 -12 37.8329 38.0535 6
 2 5 -11 171.201 47.2159 5
 2 5 -11 222.563 56.1563 7
 2 5 -11 186.71 46.0229 4
 2 5 -11 151.399 49.8672 6
 2 5 -10 367.328 58.6372 5
 2 5 -10 347.91 58.309 6
 2 5 -10 339.171 59.054 7
 2 5 -10 320.879 53.112 4
 2 5 -9 1795 115.932 5
 -2 5 9 2080.24 121.926 1
 2 5 -9 1972.8 125.648 7
 2 5 -9 1807.58 116.407 4
 2 5 -9 1927.2 124.722 6
 -2 5 8 347.82 51.0238 1
 2 5 -8 320.868 49.3216 5
 2 5 -8 400.476 57.8798 7
 2 5 -8 455.785 54.6295 4
 2 5 -8 486.961 61.9192 6
 -2 5 7 116.98 35.2118 1
 2 5 -7 100.434 33.2807 5
 2 5 -7 123.142 34.9956 4
 2 5 -7 128.784 36.7988 7
 2 5 -7 103.455 35.3232 6
 2 5 -6 3048.34 147.107 5
 -2 5 6 3236.86 152.507 1
 2 5 -6 3040.85 146.585 4
 2 5 -6 2982.95 153.337 7
 2 5 -6 3244.46 156.103 6
 2 5 -5 6447.1 257.056 5
 -2 5 5 7016.42 267.304 1
 2 5 -5 6684.2 258.646 4
 2 5 -5 6484.36 265.963 7
 2 5 -5 6587.49 266.919 6
 -2 5 4 8519.29 313.693 1
 2 5 -4 8074.91 303.714 5
 2 5 -4 8597.72 316.009 7
 2 5 -4 7439.08 301.493 8
 2 5 -4 8267.44 304.973 4
 2 5 -4 8581.02 315.712 6
 -2 5 3 994.047 67.2902 1
 2 5 -3 949.265 61.9189 5
 2 5 -3 997.352 67.6474 6
 2 5 -3 941.132 66.3557 7
 2 5 -3 940.825 61.2641 4
 2 5 -2 2196.88 106.384 5
 2 5 -2 2338.49 112.406 7
 2 5 -2 2329.17 108.15 4
 2 5 -2 2319.14 111.921 6
 2 5 -1 2584.55 117.661 5
 2 5 -1 2556.19 117.727 4
 2 5 -1 2961.34 125.476 6
 2 5 -1 2663.48 122.791 7
 2 5 0 2861.53 128.732 7
 2 5 0 2928.17 129.374 6
 2 5 1 1187.54 69.6276 7
 2 5 1 1103.67 67.8015 6
 -2 5 -2 8757.38 313.288 7
 2 5 2 8264.58 316.251 7
 -2 5 -2 8922.37 313.686 6
 2 5 2 8840.19 318.046 6
 -2 5 -3 1513.06 81.9534 7
 2 5 3 1334.12 79.7732 7
 -2 5 -3 1471.62 80.378 6
 2 5 3 1401.4 79.2184 6
 -2 5 -4 5417.72 215.674 7
 -2 5 -4 5076.8 212.478 6
 -2 5 -5 1461.97 91.6168 7
 -2 5 -5 1385.23 89.8261 6
 -2 5 -6 594.091 61.0282 7
 -2 5 -6 548.889 59.4571 6
 -2 5 -7 2691.36 145.399 7
 -2 5 -7 2595.58 142.658 6
 -2 5 -8 394.997 59.1557 7
 -2 5 -8 163.195 45.5488 6
 -2 5 -9 16.3436 37.5399 7
 -2 5 -9 40.7504 38.0588 6
 -2 5 -10 150.965 44.8214 7
 -2 5 -10 79.9083 42.2678 6
 -2 5 -11 9.58633 34.1066 6
 -2 5 -11 28.7187 36.787 7
 2 6 -12 1081.67 107.442 7
 2 6 -12 1051.65 107.097 6
 2 6 -11 1099.45 102.047 7
 2 6 -11 826.988 92.1416 6
 2 6 -10 26.3466 42.3091 7
 2 6 -10 26.3743 38.3119 6
 2 6 -9 203.549 47.6692 7
 2 6 -9 171.531 43.7209 6
 2 6 -8 1284.77 97.8256 7
 2 6 -8 1237.22 97.1422 6
 -2 6 7 2783.31 147.995 1
 2 6 -7 3021.73 156.321 7
 2 6 -7 2870.97 154.453 6
 -2 6 6 305.666 46.226 1
 2 6 -6 295.691 49.7833 7
 2 6 -6 322.511 51.6752 6
 -2 6 5 716.631 62.8314 1
 2 6 -5 711.38 64.8156 7
 2 6 -5 714.622 65.8363 6
 2 6 -4 76.6783 31.9689 6
 2 6 -4 125.42 34.66 7
 -2 6 4 95.2307 30.8913 1
 2 6 -3 1493.79 90.5104 7
 2 6 -3 1448.29 89.6386 6
 2 6 -2 3839.87 168.632 7
 2 6 -2 3872.72 169.553 6
 2 6 -1 4413.49 183.904 7
 2 6 -1 4378.39 183.408 6
 2 6 0 1461.72 82.7427 6
 2 6 0 1482.61 83.3868 7
 -2 6 -4 748.82 61.1882 7
 -2 6 -4 793.009 62.6354 6
 -2 6 -5 679.904 65.1815 7
 -2 6 -5 916.15 70.84 6
 -2 6 -6 815.008 72.2906 7
 -2 6 -6 785.362 70.9692 6
 -2 6 -7 1237.7 95.8534 7
 -2 6 -7 1502.77 101.496 6
 -2 6 -8 201.996 49.4861 7
 -2 6 -8 146.871 45.2387 6
 -2 6 -9 50.8719 40.8602 7
 -2 6 -9 33.7437 38.7647 6
 -2 6 -10 9.16648 43.489 7
 -2 6 -10 54.8688 45.3733 6
 -2 6 -11 58.9459 43.5917 7
 -2 6 -11 -9.81997 40.3407 6
 2 7 -11 423.367 73.2388 7
 2 7 -11 275.632 62.7007 6
 2 7 -10 759.245 85.4406 7
 2 7 -10 788.052 84.8336 6
 2 7 -9 543.954 71.9465 7
 2 7 -9 449.674 69.4519 6
 2 7 -8 64.4856 38.3284 7
 2 7 -8 105.224 38.4869 6
 2 7 -7 556.319 65.4769 6
 2 7 -7 703.549 72.9122 7
 2 7 -6 812.144 74.3848 7
 2 7 -6 751.961 72.0296 6
 2 7 -5 38.766 31.1301 6
 2 7 -5 38.6115 30.533 7
 -2 7 5 6.07611 30.1504 1
 2 7 -4 184.991 38.9571 7
 2 7 -4 215.666 40.9948 6
 2 7 -3 6218.88 256.023 7
 2 7 -3 6308.32 256.691 6
 2 7 -2 2379.64 121.218 6
 2 7 -2 2225.07 119.641 7
 -2 7 -7 733.603 74.7885 7
 -2 7 -7 751.036 75.6271 6
 -2 7 -8 257.211 54.3498 7
 -2 7 -8 183.812 46.4475 6
 -2 7 -9 52.5211 40.8743 7
 -2 7 -9 8.7112 35.04 6
 -2 7 -10 113.007 42.6385 7
 -2 7 -10 84.5453 42.5334 6
 2 8 -10 310.405 61.508 7
 2 8 -10 466.002 70.5843 6
 2 8 -9 772.306 89.2244 7
 2 8 -9 972.906 94.6551 6
 2 8 -8 85.677 43.1889 6
 2 8 -8 85.2913 41.1724 7
 2 8 -7 374.275 60.1365 7
 2 8 -7 487.545 67.0445 6
 2 8 -6 371.047 57.5542 7
 2 8 -6 468.881 61.9438 6
 2 8 -5 131.184 41.2742 7
 2 8 -5 207.846 46.0442 6
 2 9 -9 512.655 76.9857 6
 2 9 -9 673.451 82.8597 7
 2 9 -8 356.438 60.1179 7
 2 9 -8 267.984 55.9155 6
 -3 -11 3 226.796 60.2486 3
 3 -11 -3 320.968 62.9712 3
 -3 -11 2 206.11 54.3436 3
 3 -11 -2 194.827 59.2475 3
 -3 -11 1 372.572 66.2605 3
 3 -11 -1 349.519 66.3237 3
 -3 -11 0 411.47 68.5086 3
 -3 -11 -1 323.41 62.8921 3
 3 -11 2 87.0262 42.9925 1
 -3 -11 -2 88.1158 53.2747 3
 3 -10 -7 454.633 70.6038 3
 -3 -10 7 388.838 70.7239 3
 -3 -10 6 386.565 65.5813 3
 3 -10 -6 333.771 65.0494 3
 3 -10 -5 344.728 64.8706 3
 -3 -10 5 331.545 59.7877 3
 3 -10 -4 163.406 47.2863 3
 -3 -10 4 165.233 46.4779 3
 3 -10 -3 27.8906 38.1928 3
 -3 -10 3 9.09579 37.3669 3
 3 -10 -2 665.865 78.5164 3
 -3 -10 2 369.749 65.6083 3
 3 -10 -1 539.469 70.8688 1
 -3 -10 1 494.665 71.111 3
 3 -10 -1 538.169 71.7846 3
 3 -10 0 95.9849 36.6153 1
 -3 -10 0 8.97255 38.3928 3
 3 -10 1 133.501 47.3458 1
 -3 -10 -1 99.1901 50.8576 3
 -3 -10 -2 125.586 49.678 3
 3 -10 2 273.403 59.4873 1
 -3 -10 -3 404.672 66.0574 3
 3 -10 3 533.729 78.692 1
 3 -10 4 348.778 64.9247 1
 3 -10 5 278.881 59.1323 1
 3 -9 -9 232.098 59.6898 3
 3 -9 -8 266.331 61.9239 3
 -3 -9 7 223.924 50.433 3
 3 -9 -7 172.892 51.9588 3
 -3 -9 6 -17.0079 35.6516 3
 3 -9 -6 27.971 39.0881 3
 -3 -9 5 566.983 72.3741 3
 3 -9 -5 523.981 75.1019 3
 -3 -9 4 134.18 43.6717 3
 3 -9 -4 209.801 49.9967 3
 3 -9 -3 255.396 51.7132 1
 3 -9 -3 253.909 55.9952 3
 -3 -9 3 239.682 52.9225 3
 -3 -9 2 1757.41 124.385 3
 3 -9 -2 1878.65 127.547 3
 3 -9 -2 1963.72 127.628 1
 -3 -9 1 620.099 73.0075 3
 3 -9 -1 471.987 66.42 1
 3 -9 -1 613.474 71.7599 3
 3 -9 0 643.662 73.0754 1
 -3 -9 0 569.808 72.3002 3
 3 -9 1 74.2383 44.8631 1
 -3 -9 -1 48.7462 38.5817 3
 -3 -9 -2 -16.292 36.7818 3
 3 -9 2 16.9201 34.7509 1
 -3 -9 -3 649.364 78.0967 3
 3 -9 3 907.094 89.5604 1
 3 -9 4 27.1027 39.37 1
 3 -9 5 84.2128 45.1494 1
 3 -9 6 444.988 70.7416 1
 3 -9 7 430.957 71.8202 1
 -3 -9 -7 489.468 73.8937 8
 3 -8 -10 -9.68153 51.9795 3
 3 -8 -9 113.382 50.2355 3
 3 -8 -8 91.7604 40.0855 3
 3 -8 -7 461.642 66.3186 3
 -3 -8 7 515.751 68.3276 3
 3 -8 -6 120.056 40.9102 1
 3 -8 -6 102.653 41.3387 3
 -3 -8 6 93.3535 37.6196 3
 -3 -8 5 61.4963 33.6013 3
 3 -8 -5 95.3892 39.006 1
 3 -8 -5 115.285 45.8799 3
 -3 -8 4 681.634 72.6666 3
 3 -8 -4 603.314 70.7869 1
 3 -8 -4 695.759 75.5967 3
 -3 -8 3 549.713 67.9282 3
 3 -8 -3 682.778 74.3138 3
 3 -8 -3 717.865 71.5008 1
 3 -8 -2 204.096 49.1938 3
 -3 -8 2 153.579 40.1081 3
 3 -8 -2 162.909 42.3431 1
 3 -8 -1 809.508 79.9152 3
 3 -8 -1 885.517 82.2518 1
 -3 -8 1 930.872 82.2451 3
 3 -8 0 181.658 43.4339 3
 3 -8 0 211.763 49.014 1
 -3 -8 0 209.892 45.859 3
 3 -8 1 949.632 85.25 1
 -3 -8 -1 828.883 80.2966 3
 -3 -8 -2 2068.77 129.025 3
 3 -8 2 2293.7 137.64 1
 -3 -8 -3 57.6567 35.7865 3
 3 -8 3 72.1628 35.6106 1
 -3 -8 -3 21.6342 35.2937 8
 -3 -8 -4 237.813 47.0098 8
 3 -8 4 241.819 51.9441 1
 -3 -8 -5 669.714 73.8093 8
 3 -8 5 627.526 77.3567 1
 -3 -8 -6 746.752 82.5573 8
 3 -8 6 888.207 91.9955 1
 -3 -8 -7 432.742 68.066 8
 3 -8 7 509.448 74.4405 1
 3 -8 8 275.343 61.1528 1
 -3 -8 -8 243.335 61.0882 8
 3 -7 -10 249.898 58.0312 3
 3 -7 -9 1089.41 97.2637 3
 -3 -7 8 328.121 53.7848 3
 3 -7 -8 225.174 53.5257 3
 3 -7 -7 354.128 58.4421 3
 -3 -7 7 261.485 48.514 3
 3 -7 -6 1558.4 115.506 3
 -3 -7 6 1725.65 112.879 3
 -3 -7 5 110.413 39.4873 3
 3 -7 -5 154.895 39.7691 1
 3 -7 -5 148.257 42.8356 3
 -3 -7 4 1064.34 83.7921 3
 3 -7 -4 820.512 75.489 1
 3 -7 -4 936.83 82.007 3
 -3 -7 3 2842.88 151.247 3
 3 -7 -3 3029.79 154.711 3
 3 -7 -3 2732.94 147.667 1
 3 -7 -2 326.23 50.5154 1
 -3 -7 2 329.589 51.5863 3
 3 -7 -2 315.413 49.9535 3
 -3 -7 1 1516.75 101.812 3
 3 -7 -1 1502.37 102.436 3
 3 -7 -1 1757.79 106.847 1
 3 -7 0 298.728 45.5383 3
 -3 -7 0 348.877 48.8583 3
 3 -7 0 274.755 48.1895 1
 -3 -7 -1 419.356 54.8968 3
 3 -7 1 567.631 63.9104 1
 -3 -7 -1 470.634 53.4042 8
 3 -7 2 797.998 73.6424 1
 -3 -7 -2 712.987 68.617 8
 -3 -7 -2 732.257 70.0589 3
 -3 -7 -3 302.141 51.5768 8
 -3 -7 -3 452.396 55.1629 3
 3 -7 3 444.293 60.8231 1
 -3 -7 -4 2389.87 141.069 8
 3 -7 4 2686.34 148.921 1
 3 -7 5 464.28 64.6771 1
 -3 -7 -5 376.049 55.4283 8
 3 -7 6 1055.58 91.3706 1
 -3 -7 -6 876.994 89.619 8
 3 -7 7 35.1533 39.0129 1
 -3 -7 -7 43.6745 32.7789 8
 -3 -7 -8 223.344 55.5918 8
 3 -7 8 203.12 54.6148 1
 3 -7 9 270.084 61.9308 1
 -3 -7 -9 147.849 55.1976 8
 3 -6 -12 249.251 57.1388 8
 -3 -6 12 139.159 47.0384 1
 3 -6 -11 142.857 47.5743 8
 -3 -6 11 147.26 44.4223 1
 3 -6 -10 2222.97 141.505 3
 3 -6 -10 2274.66 143.024 8
 -3 -6 10 2402.86 145.074 1
 3 -6 -9 927.564 86.3008 8
 3 -6 -9 1026.64 93.2435 3
 -3 -6 9 1075.8 87.5734 1
 -3 -6 8 1073.24 88.1183 3
 -3 -6 8 980.605 83.2141 1
 3 -6 -8 1150.85 95.4271 3
 -3 -6 7 152.131 37.4701 3
 3 -6 -7 123.502 42.8723 3
 3 -6 -6 4150.13 193.401 3
 -3 -6 6 3748.71 184.112 3
 3 -6 -5 602.714 66.6132 3
 -3 -6 5 640.352 65.2594 3
 -3 -6 4 2751.12 145.01 3
 3 -6 -4 2907.47 149.915 3
 3 -6 -4 3064.64 150.278 1
 -3 -6 3 40.7879 29.3194 3
 3 -6 -3 5.90986 27.147 3
 3 -6 -3 11.5642 24.2473 1
 -3 -6 2 2446.18 131.977 3
 3 -6 -2 2681.7 134.413 3
 3 -6 -2 2581.56 133.972 1
 -3 -6 1 1963.72 109.469 3
 3 -6 -1 1788.75 104.469 3
 3 -6 -1 1808.03 107.62 1
 -3 -6 0 2232.95 119.72 3
 3 -6 0 2253.98 116.836 3
 -3 -6 0 2036.15 111.376 4
 3 -6 0 2206.3 121.521 1
 -3 -6 0 2309.7 115.849 5
 -3 -6 -1 366.614 44.6271 5
 -3 -6 -1 329.764 42.941 4
 3 -6 1 484.071 53.8121 1
 -3 -6 -1 431.214 50.879 3
 3 -6 1 360.602 45.1923 3
 -3 -6 -1 458.158 51.8609 8
 -3 -6 -2 940.21 72.4986 3
 3 -6 2 962.123 79.4363 1
 -3 -6 -2 892.225 68.5329 5
 -3 -6 -2 932.063 74.7875 8
 -3 -6 -2 993.008 71.5242 4
 -3 -6 -3 5711.09 231.331 5
 -3 -6 -3 5200.62 226.91 3
 -3 -6 -3 5294.65 235.406 8
 3 -6 3 5929.98 244.188 1
 -3 -6 -3 5442.37 229.501 4
 -3 -6 -4 485.019 57.5591 8
 3 -6 4 556.415 64.4443 1
 3 -6 5 458.817 60.0823 1
 -3 -6 -5 463.412 59.7967 8
 3 -6 6 238.087 51.6667 1
 -3 -6 -6 69.1215 35.4891 8
 3 -6 7 121.76 44.1971 1
 -3 -6 -7 66.2124 34.8104 8
 3 -6 8 34.3839 36.7763 1
 -3 -6 -8 53.1137 41.3485 8
 -3 -6 -9 322.288 59.7214 8
 3 -6 9 280.021 59.4487 1
 3 -6 10 18.9907 35.6056 1
 -3 -6 -10 -10.0396 42.9236 8
 3 -5 -13 70.5493 44.8043 8
 -3 -5 13 105.903 45.0334 1
 3 -5 -12 94.1928 40.3587 8
 -3 -5 12 72.1564 40.8127 1
 -3 -5 11 343.004 56.2198 1
 3 -5 -11 313.411 57.5068 8
 3 -5 -10 1466.41 107.614 3
 3 -5 -10 1411.28 107.873 8
 -3 -5 10 1446.25 107.908 1
 3 -5 -9 1130.38 94.8254 3
 3 -5 -9 1194.22 91.9953 8
 -3 -5 9 1134.27 91.6644 1
 3 -5 -8 652.987 67.5897 3
 3 -5 -8 524.284 60.034 8
 -3 -5 8 552.989 62.0943 3
 -3 -5 8 484.531 59.6717 1
 3 -5 -7 1295.42 95.7819 3
 -3 -5 7 1124.4 84.5536 1
 3 -5 -7 1649.46 96.6291 8
 -3 -5 7 1466.05 95.9716 3
 3 -5 -6 712.323 68.9885 3
 3 -5 -6 886.247 65.0221 8
 -3 -5 6 788.544 66.5911 3
 -3 -5 6 721.41 60.9236 1
 3 -5 -5 2512.06 129.821 3
 -3 -5 5 2255.07 123.208 3
 -3 -5 4 2286.43 121.186 3
 3 -5 -4 2353.61 124.779 3
 3 -5 -3 1401.85 87.4251 3
 3 -5 -3 1249.55 85.1369 1
 -3 -5 2 2080.92 111.351 3
 3 -5 -2 2127.88 110.667 3
 3 -5 -2 2154.68 112.949 1
 -3 -5 1 2252.66 116.407 3
 3 -5 -1 2294.44 115.685 3
 3 -5 -1 2410.41 120.539 1
 -3 -5 0 2565.89 124.314 3
 3 -5 0 2633.01 122.588 3
 -3 -5 0 2454.81 121.4 4
 3 -5 0 2484.07 126.57 1
 -3 -5 0 2548.69 122.187 5
 -3 -5 -1 1950.49 102.11 3
 -3 -5 -1 1894.55 102.306 4
 3 -5 1 2102.57 99.4775 3
 -3 -5 -1 1851.28 103.432 8
 3 -5 1 1950.59 107.631 1
 -3 -5 -1 1729.33 98.8686 5
 -3 -5 -2 1129.99 73.6949 5
 -3 -5 -2 1112.89 72.0998 3
 -3 -5 -2 981.084 71.1633 4
 -3 -5 -2 1087.4 75.4321 8
 3 -5 2 1050.59 77.5842 1
 -3 -5 -3 1687.91 97.5687 5
 -3 -5 -3 1526.83 90.5246 3
 -3 -5 -3 1675.99 100.275 8
 3 -5 3 1688.48 101.859 1
 -3 -5 -3 1614.08 96.9297 4
 -3 -5 -4 206.953 40.3155 5
 -3 -5 -4 225.41 41.9691 4
 3 -5 4 251.418 44.919 1
 -3 -5 -4 322.398 48.4837 8
 -3 -5 -5 2755.52 142.417 5
 -3 -5 -5 2688.95 141.999 4
 3 -5 5 2932.39 150.83 1
 -3 -5 -5 2631.42 145.385 8
 -3 -5 -6 1690.94 111.318 5
 -3 -5 -6 1949.13 119.098 8
 -3 -5 -6 1706.38 111.62 4
 3 -5 6 1741.32 114.748 1
 3 -5 7 2225.38 134.566 1
 -3 -5 -7 2068.11 131.196 8
 -3 -5 -7 2170.62 130.981 5
 -3 -5 -7 2074.94 129.008 4
 -3 -5 -8 339.67 58.8801 5
 3 -5 8 333.101 57.8207 1
 -3 -5 -8 412.232 60.8088 8
 -3 -5 -8 279.228 52.7227 4
 -3 -5 -9 910.606 90.7866 5
 3 -5 9 1103.74 97.5257 1
 -3 -5 -9 1117.59 100.711 8
 -3 -5 -9 1208.01 100.41 4
 -3 -5 -10 518.151 71.4603 8
 3 -5 10 577.577 80.7742 1
 -3 -5 -10 547.764 74.3237 5
 -3 -5 -10 387.502 66.0501 4
 3 -5 11 488.35 71.148 1
 -3 -5 -11 469.302 69.777 5
 -3 -5 -11 497.402 73.7666 8
 -3 -5 -11 432.775 68.1706 4
 3 -4 -13 59.1385 43.0224 8
 -3 -4 13 103.726 41.9189 1
 -3 -4 12 639.75 76.123 1
 3 -4 -12 366.964 63.8696 8
 3 -4 -11 296.338 56.4045 8
 -3 -4 11 354.736 58.6772 1
 3 -4 -10 789.602 80.0971 8
 3 -4 -10 737.372 75.9635 3
 -3 -4 10 759.169 77.5458 1
 -3 -4 9 439.336 54.6497 3
 3 -4 -9 500.19 59.562 3
 -3 -4 9 420.497 55.0706 1
 3 -4 -9 483.827 59.4895 8
 -3 -4 8 7433.23 293.25 1
 3 -4 -8 7141.88 293.693 8
 3 -4 -8 7044.96 295.983 3
 -3 -4 8 7318.16 292.189 3
 3 -4 -7 1982.31 115.996 3
 -3 -4 7 2022.48 110.83 1
 3 -4 -7 2006.78 112.91 8
 -3 -4 7 2064.32 114.265 3
 3 -4 -6 1725.89 103.199 3
 -3 -4 6 1764.04 95.2102 1
 3 -4 -6 1560.23 94.044 8
 -3 -4 6 1722.11 99.5865 3
 3 -4 -5 7739.71 300.807 3
 3 -4 -5 7793.24 290.133 8
 -3 -4 5 7668.4 285.494 1
 -3 -4 5 7539.96 295.332 3
 3 -4 -4 381.454 37.2793 8
 3 -4 -4 428.724 46.5722 3
 -3 -4 4 350.029 35.0989 1
 -3 -4 4 402.981 44.7793 3
 -3 -4 3 2191.22 108.992 3
 3 -4 -3 2199.47 110.543 3
 3 -4 -3 2045.08 94.2631 8
 3 -4 -2 472.986 46.2108 1
 -3 -4 2 464.384 43.5983 3
 3 -4 -2 409.394 41.0777 3
 -3 -4 1 1800.66 91.8131 3
 3 -4 -1 1785.38 89.076 3
 -3 -4 1 1625.33 89.2472 4
 3 -4 -1 1656.13 92.0133 1
 -3 -4 1 1649.21 89.2747 5
 -3 -4 0 3849.86 155.197 3
 3 -4 0 3525.73 149.549 3
 -3 -4 0 3633.88 154.727 5
 3 -4 0 3624.06 158.264 1
 -3 -4 0 3496.91 153.513 4
 -3 -4 -1 561.752 47.9312 5
 -3 -4 -1 613.564 52.2292 8
 -3 -4 -1 550.056 49.4905 4
 -3 -4 -1 570.415 46.8313 3
 3 -4 1 506.569 41.3818 3
 3 -4 1 577.041 50.5339 1
 -3 -4 -2 2862.41 133.978 5
 -3 -4 -2 2985.51 128.595 3
 3 -4 2 2909.93 138.206 1
 -3 -4 -2 2868.28 134.377 4
 -3 -4 -2 2809.36 136.405 8
 -3 -4 -3 6937.81 270.733 5
 -3 -4 -3 7228.98 260.216 3
 -3 -4 -3 6905.52 273.278 8
 -3 -4 -3 7000.15 271.614 4
 -3 -4 -3 6637.28 265.119 7
 -3 -4 -3 6849.08 267.278 6
 3 -4 3 7078.4 274.687 1
 -3 -4 -3 6698.77 264.079 2
 -3 -4 -4 88.3072 33.0209 5
 -3 -4 -4 121.95 33.3286 8
 -3 -4 -4 99.2418 31.4211 4
 -3 -4 -4 93.9204 32.6089 7
 3 -4 4 146.067 36.6946 1
 -3 -4 -4 52.1339 27.1202 6
 -3 -4 -4 90.9394 29.4391 2
 -3 -4 -5 2857.64 142.848 4
 -3 -4 -5 2655.71 134.674 7
 -3 -4 -5 2735 135.956 6
 -3 -4 -5 2913.09 145.728 8
 3 -4 5 2670.81 140.907 1
 -3 -4 -5 3187.28 147.744 5
 -3 -4 -5 2612.67 133.441 2
 -3 -4 -6 3360.32 158.461 6
 -3 -4 -6 3136.66 155.223 7
 -3 -4 -6 3220.44 162.287 5
 3 -4 6 3109.14 159.362 1
 -3 -4 -6 3539.58 170.146 8
 -3 -4 -6 3337.22 155.777 2
 -3 -4 -6 3039.19 159.413 4
 -3 -4 -7 3281.73 171.22 5
 -3 -4 -7 3367.98 173.96 8
 -3 -4 -7 3357.72 171.545 4
 3 -4 7 3466.05 171.949 1
 -3 -4 -8 340.258 53.3755 5
 3 -4 8 305.656 54.2727 1
 -3 -4 -8 345.826 55.3979 8
 -3 -4 -8 356.578 54.2984 4
 -3 -4 -9 1784.8 122.211 5
 -3 -4 -9 1593.25 116.973 4
 -3 -4 -9 1642.95 119.009 8
 3 -4 9 1763.32 121.196 1
 3 -4 10 158.174 45.445 1
 -3 -4 -10 114.951 46.5043 5
 -3 -4 -10 212.877 53.8054 4
 -3 -4 -10 81.6328 44.5577 8
 3 -4 11 150.046 52.5891 1
 -3 -4 -11 199.186 54.1912 5
 -3 -4 -11 202.497 50.1126 8
 -3 -4 -11 104.659 50.7236 4
 3 -3 -14 286.722 62.1383 8
 -3 -3 14 345.63 63.3193 1
 3 -3 -13 864.856 93.3727 8
 -3 -3 13 904.678 91.6898 1
 3 -3 -12 62.2678 37.3183 8
 -3 -3 12 25.6951 35.9342 1
 -3 -3 11 762.232 77.9747 1
 3 -3 -11 787.071 82.258 8
 -3 -3 10 684.348 73.0278 1
 3 -3 -10 824.87 78.8096 8
 3 -3 -10 767.971 72.8243 3
 3 -3 -9 235.186 43.8361 3
 -3 -3 9 244.258 43.6068 3
 3 -3 -9 161.872 43.2411 8
 -3 -3 9 217.641 43.4802 1
 -3 -3 8 27.4407 25.2155 3
 3 -3 -8 41.6028 29.4909 3
 -3 -3 8 39.952 31.0228 1
 3 -3 -8 -6.06241 26.908 8
 3 -3 -7 3018.09 143.725 3
 3 -3 -7 2671.49 137.153 8
 -3 -3 7 2790.66 135.845 1
 -3 -3 7 2764.83 136.201 3
 3 -3 -6 2227.32 117.158 3
 3 -3 -6 2315.61 115.028 8
 -3 -3 6 2143.82 109.955 1
 -3 -3 6 2197.77 114.065 3
 3 -3 -5 703.844 47.6036 5
 3 -3 -5 830.452 62.2577 3
 -3 -3 5 798.295 54.1268 1
 3 -3 -5 841.922 56.9939 8
 3 -3 -5 741.573 47.9664 4
 -3 -3 5 799.381 59.4662 3
 3 -3 -4 3124.56 124.243 5
 3 -3 -4 3505.28 146.17 3
 3 -3 -4 2953.13 123.557 4
 -3 -3 4 3139.98 131.194 1
 3 -3 -4 3279.43 136.085 8
 -3 -3 4 3249.7 142.211 3
 3 -3 -3 2634.35 103.536 5
 3 -3 -3 2792.45 123.988 3
 -3 -3 3 2741.47 109.314 1
 3 -3 -3 2606.67 103.465 4
 3 -3 -3 2527.98 111.771 8
 -3 -3 3 2850.38 123.251 3
 -3 -3 2 3094.49 129.114 3
 3 -3 -2 2701.68 114.364 8
 3 -3 -2 2904.58 107.926 5
 3 -3 -2 3127.42 129.588 3
 -3 -3 2 2922.87 110.921 1
 3 -3 -2 2903.54 107.938 4
 -3 -3 1 10605.1 388.816 3
 3 -3 -1 11109.9 369.07 5
 3 -3 -1 11006.6 387.885 3
 3 -3 -1 11266.5 373.51 8
 -3 -3 1 10899.1 393.422 4
 3 -3 -1 11087.3 369.204 4
 3 -3 -1 11590.6 395.525 1
 -3 -3 1 11168.3 394.012 5
 -3 -3 0 10441.3 371.915 3
 3 -3 0 11019.3 379.677 1
 3 -3 0 10286.8 368.214 3
 -3 -3 0 10627.3 378.166 5
 -3 -3 0 10354.3 377.378 4
 3 -3 0 10841.1 361.032 7
 3 -3 0 10724.5 360.544 6
 -3 -3 -1 5337.69 207.012 5
 -3 -3 -1 5129.08 197.834 3
 3 -3 1 4823.37 191.41 3
 -3 -3 -1 5365.76 207.648 4
 3 -3 1 5578.3 194.308 6
 -3 -3 -1 5233.5 204.835 2
 3 -3 1 5317.26 206.49 1
 -3 -3 -1 5434.35 209.038 8
 -3 -3 -2 10824.4 383.535 5
 -3 -3 -2 9654.32 367.623 3
 -3 -3 -2 10542.8 383.279 4
 -3 -3 -2 10809.6 385.106 8
 -3 -3 -2 10896.7 382.713 7
 3 -3 2 11408.1 385.797 1
 -3 -3 -2 10966.7 381.629 2
 -3 -3 -2 10651.7 382.589 6
 -3 -3 -3 1115.79 73.419 5
 -3 -3 -3 1209.33 62.6389 3
 -3 -3 -3 1182.35 75.2605 8
 -3 -3 -3 1233.09 74.0778 6
 -3 -3 -3 1121.86 74.2859 4
 -3 -3 -3 1130.12 71.6097 2
 -3 -3 -3 1075.21 70.8357 7
 3 -3 3 1216.4 75.3867 1
 -3 -3 -4 3091 148.104 5
 -3 -3 -4 3221.16 149.961 8
 -3 -3 -4 3205.65 149.825 4
 -3 -3 -4 3374.94 148.508 7
 -3 -3 -4 3191.91 147.329 6
 3 -3 4 3150.05 147.009 1
 -3 -3 -4 3175.88 145.251 2
 -3 -3 -5 6682.09 264.187 5
 -3 -3 -5 6550.81 258.626 6
 -3 -3 -5 6455.7 257.92 7
 3 -3 5 6446.02 258.777 1
 -3 -3 -5 6389.39 262.009 4
 -3 -3 -5 6358.83 256.469 2
 -3 -3 -5 6368.46 262.346 8
 -3 -3 -6 2087.76 123.825 5
 -3 -3 -6 2164.53 120.808 6
 -3 -3 -6 2270.13 126.755 4
 -3 -3 -6 2340.78 123.161 7
 3 -3 6 2410.12 126.272 1
 -3 -3 -6 2403.51 124.361 2
 -3 -3 -6 2380.43 128.577 8
 -3 -3 -7 5.89274 27.9518 2
 -3 -3 -7 46.896 32.7556 8
 -3 -3 -7 -6.67275 30.6463 5
 3 -3 7 6.11619 32.4355 1
 -3 -3 -7 -5.9095 27.1413 7
 -3 -3 -7 13.4002 34.1735 4
 -3 -3 -7 23.9493 30.9483 6
 -3 -3 -8 96.6521 36.754 2
 -3 -3 -8 95.7903 37.6895 4
 -3 -3 -8 103.058 37.5261 7
 3 -3 8 99.5507 39.0576 1
 -3 -3 -8 51.369 35.4621 5
 -3 -3 -8 65.6867 35.7974 8
 -3 -3 -8 123.455 38.2436 6
 -3 -3 -9 641.381 75.9725 5
 3 -3 9 746.38 79.1777 1
 -3 -3 -9 764.476 80.58 4
 3 -3 10 -7.75081 31.8386 1
 -3 -3 -10 -8.7032 32.6358 5
 -3 -3 -10 -17.4711 35.1281 4
 -3 -3 -10 8.51816 30.3029 8
 -3 -3 -11 450.078 68.5674 5
 -3 -3 -11 391.47 62.5976 8
 -3 -3 -11 461.162 70.1562 4
 -3 -3 -12 350.338 66.1767 5
 -3 -3 -12 331.544 69.549 4
 -3 -3 -12 202.505 57.8902 8
 -3 -2 14 566.123 78.2274 1
 3 -2 -14 777.435 87.1006 5
 3 -2 -14 744.877 87.3171 4
 3 -2 -14 728.975 87.4304 8
 3 -2 -13 157.765 48.1254 8
 -3 -2 13 308.942 57.1692 1
 3 -2 -13 302.936 57.8027 5
 3 -2 -13 395.438 63.8454 4
 3 -2 -12 459.947 65.2825 5
 -3 -2 12 386.117 59.7322 1
 3 -2 -12 362.531 58.8965 4
 3 -2 -12 343.015 57.9265 8
 3 -2 -11 1539.62 107.55 5
 -3 -2 11 1588.58 110.189 1
 3 -2 -11 1667.68 110.26 4
 3 -2 -11 1462.02 111.321 8
 3 -2 -10 2544.99 134.247 5
 3 -2 -10 2237.09 128.21 3
 3 -2 -10 2350.89 137.722 8
 3 -2 -10 2239.87 128.69 4
 -3 -2 10 2217.42 132.317 1
 3 -2 -9 95.3491 29.7468 3
 -3 -2 9 83.1467 32.0358 3
 3 -2 -9 105.387 37.1962 8
 3 -2 -9 156.789 37.5466 5
 -3 -2 9 137.361 37.1666 1
 3 -2 -9 69.4381 32.7159 4
 3 -2 -8 3036.96 141.795 5
 3 -2 -8 2867.01 143.929 3
 -3 -2 8 3004.58 145.232 1
 3 -2 -8 2848.42 139.178 4
 3 -2 -8 2854.38 146.427 8
 -3 -2 8 2701.26 138.224 3
 -3 -2 7 729.598 59.9662 3
 3 -2 -7 701.973 56.5823 5
 3 -2 -7 798.68 62.867 3
 -3 -2 7 700.903 58.6026 1
 3 -2 -7 730.29 57.2543 4
 3 -2 -7 732.725 62.4015 8
 3 -2 -6 2555.76 118.71 5
 3 -2 -6 2434 124.59 3
 3 -2 -6 2568.12 125.506 8
 -3 -2 6 2591.34 122.123 1
 3 -2 -6 2591.06 119.239 4
 -3 -2 6 2872.97 128.911 3
 3 -2 -5 10259 381.789 5
 3 -2 -5 11312 393.31 8
 3 -2 -5 11498.6 397.771 3
 -3 -2 5 11140.7 387.967 1
 3 -2 -5 10300.8 382.184 4
 -3 -2 5 11902.4 396.75 3
 3 -2 -4 7896.45 289.204 5
 3 -2 -4 8315.93 279.832 6
 3 -2 -4 8486.56 304.185 3
 -3 -2 4 8369.98 293.634 1
 3 -2 -4 8261.47 279.982 7
 3 -2 -4 7896.18 289.355 4
 3 -2 -4 7839.92 297.063 8
 -3 -2 4 8879.34 304.698 3
 3 -2 -3 1097.88 53.9559 5
 3 -2 -3 1054.7 63.2476 3
 3 -2 -3 1011.24 52.8179 4
 3 -2 -3 1114.85 59.6106 8
 3 -2 -3 1044.11 49.3634 7
 -3 -2 3 1072.25 54.7101 1
 3 -2 -3 1028.97 48.5683 6
 -3 -2 3 1150.61 64.9121 3
 3 -2 -2 3460.05 120.922 7
 3 -2 -2 3275.54 124.33 5
 3 -2 -2 3282.51 134.824 3
 3 -2 -2 3054.04 121.532 7
 3 -2 -2 3170.3 123.86 4
 -3 -2 2 3437.65 122.949 1
 3 -2 -2 3412.45 120.322 2
 3 -2 -2 3425.05 120.639 6
 3 -2 -2 3051.62 121.033 6
 3 -2 -2 3337.04 122.713 4
 3 -2 -2 3137.59 127.812 8
 -3 -2 2 3304.71 135.593 3
 3 -2 -2 3288.24 122.494 5
 3 -2 -1 5858.57 205.033 5
 3 -2 -1 5646.97 206.734 5
 3 -2 -1 5821.56 215.303 3
 -3 -2 1 5774.28 199.963 1
 -3 -2 1 5983.92 222.152 4
 3 -2 -1 6064.49 209.48 8
 3 -2 -1 6302.87 207.48 7
 3 -2 -1 5795.71 207.357 4
 3 -2 -1 5840.42 206.149 6
 3 -2 -1 5780.21 204.967 4
 3 -2 -1 5983.45 211.926 3
 3 -2 -1 5809.62 219.037 1
 -3 -2 1 5937.02 221.746 5
 -3 -2 1 6182.21 218.359 3
 -3 -2 0 1004.59 54.12 3
 3 -2 0 992.935 47.1811 5
 3 -2 0 858.109 50.0847 3
 3 -2 0 1039.44 47.8755 4
 3 -2 0 1035.79 51.0048 7
 3 -2 0 997.851 50.4021 6
 3 -2 0 1026.75 57.4884 1
 3 -2 0 1014.42 49.7929 3
 -3 -2 0 963.916 58.7001 4
 -3 -2 0 957.294 58.6587 5
 3 -2 1 11175 363.973 5
 3 -2 1 10247.4 362.157 3
 3 -2 1 10846.6 358.025 8
 -3 -2 -1 10822.1 380.241 5
 -3 -2 -1 10771.5 367.482 3
 3 -2 1 11065.8 363.768 4
 3 -2 1 11186.1 369.596 7
 -3 -2 -1 10993.6 381.69 4
 3 -2 1 11142.3 369.189 6
 3 -2 1 10219.2 374.47 1
 -3 -2 -1 10268.7 378.378 7
 3 -2 1 10663.3 360.623 3
 -3 -2 -1 10217.7 378.408 6
 -3 -2 -1 10135.5 377.398 2
 -3 -2 -1 10780.1 380.314 8
 -3 -2 -2 611.966 36.8223 3
 3 -2 2 563.103 37.7061 5
 3 -2 2 540.18 31.073 3
 -3 -2 -2 469.695 43.7961 5
 3 -2 2 546.518 43.3364 1
 -3 -2 -2 626.74 47.9565 8
 -3 -2 -2 638.611 47.6806 2
 -3 -2 -2 589.816 47.7517 4
 -3 -2 -2 588.023 47.0221 7
 3 -2 2 569.264 37.4711 4
 -3 -2 -2 652.564 49.0828 6
 -3 -2 -3 1235.26 72.7042 5
 -3 -2 -3 1017.2 67.0492 7
 -3 -2 -3 1090.88 69.088 4
 -3 -2 -3 1014.83 67.7692 6
 -3 -2 -3 1169.06 70.1929 2
 3 -2 3 1099.08 66.5616 1
 -3 -2 -3 1156.48 69.9093 8
 -3 -2 -4 2574.54 122.203 5
 -3 -2 -4 2276.14 116.205 2
 -3 -2 -4 2510.42 119.75 8
 -3 -2 -4 2454.96 118.977 7
 3 -2 4 2402.43 115.015 1
 -3 -2 -4 2310.1 117.087 6
 -3 -2 -4 2340.68 119.228 4
 -3 -2 -5 1934.09 105.8 5
 -3 -2 -5 1897.2 103.264 8
 -3 -2 -5 1803.39 103.522 4
 3 -2 5 1817.24 98.947 1
 -3 -2 -5 2038.72 105.363 2
 -3 -2 -5 1784.45 101.332 6
 -3 -2 -5 1660.8 99.7592 7
 -3 -2 -6 3575.11 166.883 5
 -3 -2 -6 3182.63 159.183 8
 -3 -2 -6 3329.55 160.777 7
 3 -2 6 3473.61 157.691 1
 -3 -2 -6 3436.42 164.852 4
 -3 -2 -6 3426.18 161.52 6
 -3 -2 -6 3566.21 163.13 2
 -3 -2 -7 388.831 51.275 2
 -3 -2 -7 431.818 53.5663 7
 -3 -2 -7 407.478 55.4172 5
 3 -2 7 488.492 54.6305 1
 -3 -2 -7 413.051 51.5536 6
 -3 -2 -7 386.715 51.5011 8
 -3 -2 -7 525.805 59.2183 4
 -3 -2 -8 1651.56 115.577 5
 -3 -2 -8 1857.55 120.733 4
 -3 -2 -8 1893.52 116.667 8
 -3 -2 -8 1820.94 114.315 7
 3 -2 8 2018.3 115.507 1
 -3 -2 -8 1949.02 116.793 6
 -3 -2 -8 2012.12 118.643 2
 -3 -2 -9 164.693 47.5999 2
 -3 -2 -9 133.507 39.8973 5
 -3 -2 -9 176.366 44.7775 8
 -3 -2 -9 196.95 45.1433 4
 -3 -2 -9 179.32 44.5427 7
 -3 -2 -9 207.241 47.8826 6
 -3 -2 -10 34.2413 34.473 5
 -3 -2 -10 63.6412 40.0644 8
 -3 -2 -10 85.8718 40.1318 4
 -3 -2 -11 675.661 79.9127 5
 -3 -2 -11 538.297 72.0899 8
 -3 -2 -11 752.058 81.6451 4
 -3 -2 -12 119.019 53.409 5
 -3 -2 -12 139.291 52.9219 4
 3 -1 -14 591.006 78.9354 5
 3 -1 -14 453.155 69.2659 8
 -3 -1 14 629.764 82.59 1
 3 -1 -14 757.043 85.6842 4
 3 -1 -13 17.9973 32.8885 8
 -3 -1 13 -9.019 37.811 1
 3 -1 -13 -8.83692 34.7538 5
 3 -1 -13 -8.77623 34.5151 4
 3 -1 -12 146.688 44.4104 5
 3 -1 -12 109.29 42.427 8
 -3 -1 12 83.046 39.5328 1
 3 -1 -12 89.1387 42.565 4
 3 -1 -11 111.922 42.052 5
 3 -1 -11 77.6829 41.7912 8
 -3 -1 11 98.7085 38.2912 1
 3 -1 -11 44.5935 40.4735 4
 3 -1 -10 652.591 68.9394 8
 3 -1 -10 720.079 71.9556 5
 -3 -1 10 590.237 66.6465 1
 3 -1 -10 512.166 60.5694 3
 3 -1 -10 717.46 70.1546 4
 3 -1 -9 971.02 75.8646 3
 3 -1 -9 866.182 73.2788 5
 3 -1 -9 809.844 75.2053 8
 3 -1 -9 940.998 76.9328 4
 -3 -1 9 1014.98 78.3167 1
 -3 -1 9 1023.2 74.0792 3
 3 -1 -8 2749.86 136.611 5
 3 -1 -8 2598.52 134.704 3
 3 -1 -8 2924.14 138.367 4
 3 -1 -8 2794.85 141.763 8
 -3 -1 8 2806.94 138.653 1
 -3 -1 8 2479.58 130.948 3
 -3 -1 7 420.739 45.8975 3
 3 -1 -7 448.549 47.1958 5
 3 -1 -7 400.921 48.9568 8
 -3 -1 7 352.828 43.7031 1
 3 -1 -7 385.018 47.1364 3
 3 -1 -7 434.242 45.8618 4
 3 -1 -6 3358.9 135.312 4
 -3 -1 6 2916.06 131.785 1
 3 -1 -6 2982.5 130.897 5
 3 -1 -6 2883.79 134.184 3
 3 -1 -6 2657.74 118.052 7
 3 -1 -6 3130.61 137.602 8
 3 -1 -6 2546.54 117.684 6
 -3 -1 6 2927.31 132.663 3
 3 -1 -5 22661 794.14 5
 3 -1 -5 22868.1 794.528 4
 3 -1 -5 23541.9 785.686 7
 -3 -1 5 24961.1 798.659 1
 3 -1 -5 22649.9 784.498 6
 -3 -1 5 25556.5 803.698 3
 3 -1 -5 25476.5 804.705 8
 3 -1 -4 496.392 38.0011 5
 3 -1 -4 413.672 30.6746 6
 3 -1 -4 396.375 38.258 8
 3 -1 -4 439.681 31.5026 7
 -3 -1 4 417.334 35.615 1
 -3 -1 4 480.995 42.2838 3
 3 -1 -4 459.871 36.4144 4
 3 -1 -3 24448.3 831.425 5
 3 -1 -3 24268.3 831.459 4
 -3 -1 3 25442 831.394 1
 3 -1 -3 26603.5 824.688 7
 3 -1 -3 26048.5 824.608 6
 3 -1 -3 24187.4 826.345 7
 3 -1 -3 26250.2 823.641 2
 3 -1 -3 24041.4 826.054 6
 -3 -1 3 25850.7 839.317 3
 3 -1 -3 24203.9 835.314 8
 3 -1 -2 26047.3 897.351 6
 3 -1 -2 26360.3 900.207 5
 3 -1 -2 28137.9 901.856 1
 -3 -1 2 26521 896.191 1
 3 -1 -2 28169.1 897.784 4
 3 -1 -2 25710.8 901.932 8
 3 -1 -2 28425.3 895.929 7
 3 -1 -2 26623.3 898.264 7
 -3 -1 2 29067.4 906.312 7
 3 -1 -2 27488.7 895.286 6
 -3 -1 2 28574.3 904.933 6
 3 -1 -2 27771.6 894.617 2
 3 -1 -2 26356 900.494 4
 3 -1 -2 29066.4 902.604 3
 -3 -1 2 27761.7 906.477 3
 3 -1 -2 27519.1 897.37 5
 3 -1 -1 22406.2 723.474 5
 -3 -1 1 20612.2 717.157 1
 3 -1 -1 21645.1 725.61 1
 -3 -1 1 21891.5 733.393 5
 -3 -1 1 22247.3 733.777 4
 3 -1 -1 22374.9 723.205 7
 3 -1 -1 21990.9 723.265 4
 3 -1 -1 22260.3 723.015 6
 3 -1 -1 22940 723.441 2
 3 -1 -1 22361.3 724.516 3
 -3 -1 1 21817 728.176 3
 3 -1 0 237.687 22.5374 1
 -3 -1 0 250.573 27.9645 5
 3 -1 0 217.727 22.6168 7
 3 -1 0 261.465 23.3136 5
 -3 -1 0 223.066 28.6256 6
 3 -1 0 207.848 19.7741 3
 -3 -1 0 255.493 27.7637 4
 -3 -1 0 230.052 22.2748 3
 -3 -1 0 247.36 29.8319 7
 3 -1 0 241.414 22.7278 4
 3 -1 0 208.996 21.5331 3
 3 -1 0 238.079 21.2215 8
 3 -1 0 204.219 22.1128 6
 3 -1 0 196.025 23.8207 1
 -3 -1 0 209.965 27.8713 2
 -3 -1 -1 2651.49 114.298 5
 3 -1 1 2695.57 106.127 5
 3 -1 1 2475.26 98.1053 3
 -3 -1 -1 2635.19 112.638 8
 3 -1 1 2692.25 102.445 8
 -3 -1 -1 2589.69 113.987 4
 -3 -1 -1 2576.17 114.186 7
 3 -1 1 2688.03 106.192 4
 3 -1 1 2781.28 109.232 7
 -3 -1 -1 2648.47 114.975 6
 3 -1 1 2683.76 108.432 6
 3 -1 1 2572.13 107.211 1
 -3 -1 -1 2605.1 113.982 2
 3 -1 1 2695.75 98.0391 3
 -3 -1 -1 2441.53 100.359 3
 -3 -1 -2 2051.71 98.431 5
 3 -1 2 1994.54 76.2712 3
 -3 -1 -2 2110.29 96.2736 8
 3 -1 2 2139.86 86.1208 8
 -3 -1 -2 2123.7 100.088 7
 -3 -1 -2 2086.55 98.9685 4
 -3 -1 -2 2176.47 100.923 6
 3 -1 2 1974.05 90.7382 1
 -3 -1 -2 2063.99 98.6153 2
 -3 -1 -2 2079.82 81.0182 3
 -3 -1 -3 459.048 42.9877 2
 -3 -1 -3 454.805 41.914 5
 -3 -1 -3 426.182 38.3592 8
 -3 -1 -3 371.619 40.3463 7
 -3 -1 -3 429.218 41.2859 4
 3 -1 3 428.816 36.4446 1
 -3 -1 -3 415.254 41.2154 6
 -3 -1 -4 5024.42 208.799 5
 -3 -1 -4 5440.37 207.367 8
 -3 -1 -4 5125.82 209.562 7
 3 -1 4 5098.24 199.455 1
 -3 -1 -4 5280.9 211.356 4
 -3 -1 -4 5114.17 209.919 6
 -3 -1 -4 5158.04 210.047 2
 -3 -1 -5 137.572 30.1043 2
 -3 -1 -5 163.885 35.1779 5
 -3 -1 -5 226.021 36.0101 7
 -3 -1 -5 156.681 31.3335 8
 -3 -1 -5 166.249 33.6621 6
 -3 -1 -5 114.626 30.8095 4
 3 -1 5 134.506 27.3964 1
 -3 -1 -6 1561.82 95.2094 5
 -3 -1 -6 1325.12 90.5421 4
 -3 -1 -6 1433.57 92.1436 7
 3 -1 6 1689.14 88.5479 1
 -3 -1 -6 1244.25 87.0178 6
 -3 -1 -6 1539.35 90.8511 8
 -3 -1 -6 1498.69 94.3798 2
 -3 -1 -7 529.951 60.2994 2
 3 -1 7 533.242 51.4868 1
 -3 -1 -7 379.781 49.8158 8
 -3 -1 -7 413.48 55.8076 5
 -3 -1 -7 596.204 60.659 7
 -3 -1 -7 558.943 60.6893 4
 -3 -1 -7 478.679 53.8831 6
 -3 -1 -8 1287.06 97.101 5
 -3 -1 -8 1235.9 88.9443 8
 -3 -1 -8 1324.88 96.9341 4
 -3 -1 -8 1368.94 95.2024 6
 -3 -1 -8 1119.53 91.1062 7
 -3 -1 -8 1215.4 91.5749 2
 -3 -1 -9 602.423 68.0259 2
 -3 -1 -9 636.772 70.773 5
 -3 -1 -9 631.263 65.841 8
 -3 -1 -9 622.858 68.2337 4
 -3 -1 -9 652.585 71.9599 7
 -3 -1 -9 693.634 71.1553 6
 -3 -1 -10 350.562 58.2327 2
 -3 -1 -10 352.702 57.9726 5
 -3 -1 -10 381.693 58.8832 7
 -3 -1 -10 286.179 52.7089 4
 -3 -1 -10 174.364 46.9933 6
 -3 -1 -11 128.499 44.5011 2
 -3 -1 -11 173.049 49.6911 5
 -3 -1 -11 102.644 42.0557 7
 -3 -1 -11 209.964 54.8436 4
 -3 -1 -11 119.303 43.6896 6
 -3 -1 -12 68.5747 38.6075 5
 -3 -1 -12 88.3859 40.4167 4
 3 0 -14 125.917 53.3156 5
 -3 0 14 48.2329 34.4093 1
 3 0 -14 121.33 46.3654 8
 3 0 -14 57.7471 47.1231 4
 -3 0 13 125.843 45.4077 1
 3 0 -13 98.9576 48.4735 4
 3 0 -13 126.668 50.4893 5
 3 0 -13 167.511 50.8452 8
 3 0 -12 1306.7 102.457 4
 3 0 -12 1167.81 99.0347 8
 -3 0 12 1069.21 96.2466 1
 3 0 -12 1229.95 101.238 5
 3 0 -11 4184.2 200.106 5
 -3 0 11 3613.02 192.765 1
 3 0 -11 3830.19 195.078 8
 3 0 -11 4161 199.348 4
 3 0 -10 117.883 39.9539 5
 -3 0 10 110.143 34.7396 1
 3 0 -10 110.542 35.8142 4
 3 0 -10 34.6847 29.2104 8
 -3 0 9 5.42662 25.3389 3
 3 0 -9 -6.2127 26.5666 5
 3 0 -9 31.5183 31.2732 8
 -3 0 9 55.6711 31.9759 1
 3 0 -9 18.5681 26.9708 4
 3 0 -8 -17.045 27.3743 8
 -3 0 8 15.0626 28.248 3
 3 0 -8 26.5463 24.0505 6
 3 0 -8 22.0353 24.0098 5
 -3 0 8 16.5118 24.8605 1
 3 0 -8 35.1744 23.6146 7
 3 0 -8 55.0121 28.0649 4
 -3 0 7 409.829 45.383 3
 3 0 -7 374 45.5753 5
 3 0 -7 421.696 46.1822 8
 3 0 -7 307.095 37.5683 7
 3 0 -7 350.47 43.8055 4
 3 0 -7 402.513 41.5398 6
 -3 0 7 329.184 42.2386 1
 3 0 -6 6868.92 265.464 5
 -3 0 6 6739.99 265.563 1
 3 0 -6 6714.89 258.469 6
 3 0 -6 6675.99 258.417 7
 3 0 -6 7021.58 269.032 8
 3 0 -6 7401.04 268.785 4
 -3 0 6 7502.83 269.155 3
 3 0 -5 3.94883 20.1454 8
 -3 0 5 -11.2935 21.1792 3
 3 0 -5 30.267 18.4814 7
 -3 0 5 28.9653 18.9644 1
 3 0 -5 40.5095 22.9047 4
 3 0 -5 15.1781 16.3045 6
 3 0 -5 11.0184 19.4824 5
 3 0 -4 5924.96 225.708 5
 -3 0 4 6101.84 225.401 1
 3 0 -4 5802.96 220.607 7
 -3 0 4 6280.98 220.005 7
 3 0 -4 5867.79 220.71 6
 -3 0 4 6611.14 220.835 6
 3 0 -4 5664.03 227.575 8
 3 0 -4 5792.59 225.237 4
 -3 0 4 6262.8 229.379 3
 3 0 -3 20587.2 714.566 5
 -3 0 3 22267.5 713.157 5
 3 0 -3 21505.9 708.461 1
 3 0 -3 20013.5 715.421 8
 -3 0 3 21877.2 713.895 1
 -3 0 3 22268.2 710.369 7
 3 0 -3 20378.9 714.375 4
 -3 0 3 22874.5 713.754 4
 3 0 -3 20501.9 711.222 7
 3 0 -3 20550.8 711.087 6
 -3 0 3 22399.4 709.762 6
 -3 0 3 21596.6 716.967 3
 3 0 -2 14883.5 516.244 5
 -3 0 2 15151.7 511.829 1
 3 0 -2 14661.6 516.747 8
 3 0 -2 15862.3 513.043 4
 3 0 -2 15468.9 510.737 7
 3 0 -2 15086.6 515.052 7
 3 0 -2 14266.7 515.309 4
 3 0 -2 15193.6 510.404 6
 3 0 -2 15402.6 509.851 2
 3 0 -2 14831.1 514.274 6
 -3 0 2 15699 516.619 3
 3 0 -2 15551.2 509.086 1
 3 0 -2 15783.8 513.565 3
 3 0 -2 15769.9 512.818 5
 3 0 -1 12279.1 401.478 5
 -3 0 1 11326 396.802 1
 3 0 -1 11903.8 395.746 1
 3 0 -1 12160 401.142 7
 3 0 -1 12118.2 401.149 6
 3 0 -1 12133.9 401.667 4
 -3 0 1 11376.8 403.827 4
 -3 0 1 11698.6 403.645 7
 -3 0 1 11717 403.721 6
 -3 0 1 11073.6 401.179 2
 3 0 -1 12181.2 400.232 2
 -3 0 1 11681.2 400.668 3
 3 0 -1 11914.2 398.519 3
 -3 0 1 11860.1 404.785 5
 -3 0 0 18149.7 606.449 5
 3 0 0 18741.7 603.416 5
 3 0 0 17596.1 595.435 1
 -3 0 0 18184.2 606.979 4
 3 0 0 18917 603.804 4
 3 0 0 18762.5 602.327 8
 -3 0 0 18281.8 608.212 6
 3 0 0 18753.4 604.41 6
 -3 0 0 17718.1 607.244 7
 -3 0 0 17434.5 605.155 2
 3 0 0 18533.7 604.113 7
 3 0 0 18320.9 603.537 2
 3 0 0 17186.8 595.92 1
 -3 0 0 17602.6 598.068 3
 3 0 0 18249.8 596.581 3
 -3 0 -1 46639.3 1508.15 5
 3 0 1 48478 1505.18 5
 3 0 1 47602.9 1495.17 1
 -3 0 -1 45746.8 1509.24 7
 -3 0 -1 45392.7 1504.8 8
 -3 0 -1 45908.8 1509.79 6
 3 0 1 48068.6 1504.9 4
 3 0 1 45717.8 1496.18 1
 -3 0 -1 46661.2 1508.6 4
 3 0 1 48044.3 1502.13 8
 -3 0 -1 43617.2 1492.19 3
 -3 0 -1 45927 1509.08 2
 3 0 1 45807.9 1491.33 3
 -3 0 -2 5538.19 202.05 5
 -3 0 -2 5206.22 195.835 8
 3 0 2 5487.07 193.745 8
 -3 0 -2 5475.96 201.929 4
 3 0 2 5211.77 188.598 1
 -3 0 -2 5355.42 203.023 6
 -3 0 -2 5144.85 201.961 7
 -3 0 -2 5313.98 187.112 1
 -3 0 -2 5224.23 202.379 2
 -3 0 -2 5067.36 178.582 3
 -3 0 -3 99.4126 26.4129 2
 -3 0 -3 72.2237 22.6551 4
 -3 0 -3 90.036 23.9659 5
 -3 0 -3 62.5397 19.0897 8
 -3 0 -3 130.376 17.7336 1
 3 0 3 103.79 18.0805 1
 -3 0 -3 91.9425 26.2676 7
 -3 0 -3 83.7746 24.7078 6
 -3 0 -4 1656.69 88.9923 5
 -3 0 -4 1520.57 81.0993 8
 -3 0 -4 1683.12 89.6037 4
 -3 0 -4 1593.87 89.3893 7
 3 0 4 1548.6 76.3597 1
 -3 0 -4 1685.44 90.8437 6
 -3 0 -4 1563.42 88.2619 2
 -3 0 -5 1640.4 95.5543 5
 -3 0 -5 1787.54 91.295 8
 -3 0 -5 1929.36 100.48 4
 -3 0 -5 1632.47 96.4035 7
 -3 0 -5 1716.83 98.1609 6
 3 0 5 1623.2 83.9802 1
 -3 0 -6 102.351 31.4421 5
 -3 0 -6 49.1738 23.6067 8
 -3 0 -6 121.597 32.2529 7
 -3 0 -6 113.372 31.1833 4
 -3 0 -6 138.169 34.8124 6
 -3 0 -7 671.822 65.293 5
 -3 0 -7 780.117 61.401 8
 -3 0 -7 665.403 66.7223 6
 -3 0 -7 672.819 65.5751 4
 -3 0 -7 817.34 71.1975 7
 -3 0 -8 101.422 36.5089 5
 -3 0 -8 197.095 41.2765 7
 -3 0 -8 88.0305 37.001 4
 -3 0 -8 115.803 38.0855 6
 -3 0 -9 148.964 47.4091 7
 -3 0 -9 104.817 44.2216 5
 -3 0 -9 134.967 41.9966 4
 -3 0 -9 254.021 49.5742 6
 -3 0 -10 41.1445 35.1895 4
 -3 0 -10 24.6495 35.1365 5
 -3 0 -10 16.2347 30.4473 7
 -3 0 -10 16.2479 29.7008 6
 -3 0 -11 134.022 48.0873 5
 -3 0 -11 69.971 40.3083 7
 -3 0 -11 116.328 45.1431 4
 -3 0 -11 113.812 45.3753 6
 -3 0 -12 28.9555 36.2025 5
 -3 0 -12 37.384 42.9303 6
 -3 0 -12 9.35717 38.4459 7
 -3 0 -12 38.6935 38.0533 4
 3 1 -14 501.251 76.623 5
 -3 1 14 683.092 84.1011 1
 3 1 -14 752.041 89.9019 4
 3 1 -14 536.359 74.4392 8
 3 1 -13 36.9803 35.5247 5
 3 1 -13 43.0487 35.3677 8
 -3 1 13 8.98819 39.8802 1
 3 1 -13 -27.5872 38.5534 4
 3 1 -12 111.19 46.5657 5
 -3 1 12 66.6322 45.3505 1
 3 1 -12 96.3532 38.7817 8
 3 1 -12 85.2069 44.1346 4
 3 1 -11 133.419 44.3113 5
 3 1 -11 118.741 39.0506 8
 -3 1 11 122.398 39.206 1
 3 1 -11 109.464 42.6614 4
 3 1 -10 726.408 73.8913 5
 -3 1 10 606.088 68.0603 1
 3 1 -10 798.774 69.4013 7
 3 1 -10 723.626 74.1134 4
 3 1 -10 727.799 66.101 6
 3 1 -10 647.379 67.2257 8
 3 1 -9 1044.06 81.6628 5
 -3 1 9 950.279 77.4688 1
 3 1 -9 1042.81 77.1546 7
 3 1 -9 1219.87 85.4169 4
 3 1 -9 919.6 78.2408 8
 3 1 -9 1021.36 75.6998 6
 3 1 -8 2696.96 139.702 5
 3 1 -8 2752.71 139.722 8
 3 1 -8 2789.39 135.083 7
 3 1 -8 2680.94 139.739 4
 3 1 -8 2704.47 133.874 6
 -3 1 8 2896.46 141.792 1
 3 1 -7 509.384 51.099 5
 3 1 -7 414.313 46.467 8
 3 1 -7 456.04 46.5455 7
 3 1 -7 450.146 49.6591 4
 -3 1 7 325.704 43.3538 1
 3 1 -7 436.05 46.0121 6
 3 1 -6 2854.01 137.604 5
 -3 1 6 3047.93 139.673 1
 3 1 -6 2932.42 134.113 7
 3 1 -6 2938.05 138.562 4
 3 1 -6 2991.26 139.473 8
 3 1 -6 3215.36 137.008 6
 -3 1 6 3139.09 139.303 3
 3 1 -5 25575.3 847.829 5
 -3 1 5 24295.9 845.018 1
 3 1 -5 25400.5 843.557 7
 3 1 -5 25096.5 847.243 4
 3 1 -5 25782.4 844.136 6
 -3 1 5 24700.9 845.811 3
 3 1 -5 25368.8 848.538 8
 -3 1 4 393.989 39.7497 3
 -3 1 4 425.082 40.5275 1
 3 1 -4 467.245 41.1674 5
 3 1 -4 423.701 41.2805 8
 -3 1 4 490.217 32.939 7
 3 1 -4 451.156 40.2673 7
 -3 1 4 522.205 32.7443 6
 3 1 -4 510.965 42.936 4
 3 1 -4 446.459 39.2962 6
 3 1 -3 23814.6 859.746 5
 -3 1 3 26152.5 852.522 5
 -3 1 3 26582.3 861.076 1
 3 1 -3 26323.6 850.4 1
 3 1 -3 24909.1 861.889 8
 3 1 -3 24340.6 858.844 7
 -3 1 3 26635.5 848.786 7
 3 1 -3 25665.5 862.399 4
 -3 1 3 26450.8 852.87 4
 3 1 -3 25190 860.063 6
 -3 1 3 26328.4 861.24 3
 -3 1 3 26690.8 848.246 6
 -3 1 3 26433.8 855.704 8
 3 1 -2 26641 907.336 5
 -3 1 2 27639.6 905.789 1
 3 1 -2 26953.2 892.648 1
 3 1 -2 28681.2 904.048 4
 3 1 -2 27206.3 907.484 7
 3 1 -2 26037.4 906.865 4
 3 1 -2 28202.4 900.9 2
 3 1 -2 27011.5 906.797 6
 3 1 -2 27614 901.351 3
 -3 1 2 26921.5 904.046 3
 3 1 -2 28450.9 903.438 5
 3 1 -1 22583.4 719.474 5
 3 1 -1 21616.2 714.472 3
 -3 1 1 22476.1 719.446 1
 3 1 -1 22960.4 719.816 7
 3 1 -1 22918.3 720.555 4
 3 1 -1 20844.4 723.355 7
 -3 1 1 21518.5 714.821 6
 3 1 -1 23052 719.927 6
 -3 1 1 20274.6 712.763 2
 3 1 -1 22515.9 718.097 2
 3 1 -1 21051.3 723.078 6
 -3 1 1 21527.3 716.105 3
 3 1 -1 21556.9 705.323 1
 -3 1 1 21270.1 714.773 7
 -3 1 1 20814.8 715.262 4
 -3 1 1 20577.2 715.048 5
 -3 1 0 201.401 23.0367 5
 3 1 0 234.45 26.5392 5
 3 1 0 272.633 28.0091 6
 -3 1 0 167.494 23.7752 7
 3 1 0 203.373 19.9746 3
 3 1 0 235.925 27.0901 7
 -3 1 0 201.089 23.5912 4
 3 1 0 231.331 26.3289 4
 3 1 0 193.286 15.7168 1
 -3 1 0 241.038 25.4254 6
 3 1 0 174.08 21.5822 8
 3 1 0 226.628 16.4264 1
 3 1 0 273.382 27.5977 2
 -3 1 0 196.138 24.6097 2
 -3 1 -1 2549.83 108.13 5
 3 1 1 2643.36 100.572 3
 3 1 1 2633.25 94.7838 1
 -3 1 -1 2635.06 109.283 4
 -3 1 -1 2385.15 109.905 7
 -3 1 -1 2833.32 113.528 6
 3 1 1 2619.42 95.0664 1
 -3 1 -1 2717.94 112.823 2
 -3 1 -1 2811.14 107.01 1
 -3 1 -2 2211.58 96.6221 5
 -3 1 -2 2196.75 90.4117 8
 -3 1 -2 2131.54 95.828 4
 -3 1 -2 2059.88 98.3239 7
 3 1 2 2088.34 80.8155 1
 -3 1 -2 2059.38 97.9467 6
 -3 1 -2 2086.11 90.3479 1
 -3 1 -2 2228.09 100.355 2
 -3 1 -3 431.865 39.1254 5
 3 1 3 528.578 30.8892 1
 -3 1 -3 499.031 43.7128 7
 -3 1 -3 430.069 40.1476 4
 -3 1 -3 362.643 31.8702 8
 -3 1 -3 460.23 43.1845 6
 -3 1 -4 4914.55 202.175 5
 -3 1 -4 4932.32 192.942 8
 -3 1 -4 5444.07 211.078 7
 -3 1 -4 5290.05 204.717 4
 -3 1 -4 5298.01 210.487 6
 -3 1 -5 258.448 35.622 5
 -3 1 -5 166.492 27.0237 8
 -3 1 -5 189.861 33.3306 6
 -3 1 -5 194.303 34.0177 7
 -3 1 -5 213.544 35.4889 4
 -3 1 -6 1539.08 92.4067 5
 -3 1 -6 1541.17 92.3969 4
 -3 1 -6 1462.45 93.2433 7
 -3 1 -6 1429.22 92.2151 6
 -3 1 -7 438.248 54.6768 7
 -3 1 -7 452.299 53.4514 5
 -3 1 -7 558.613 57.021 4
 -3 1 -7 603.686 60.4416 6
 -3 1 -8 1285.1 93.9188 5
 -3 1 -8 1227.08 92.0251 4
 -3 1 -8 1413.92 98.5421 7
 -3 1 -8 1267.39 94.1581 6
 -3 1 -9 659.063 71.5721 5
 -3 1 -9 652.439 71.6439 4
 -3 1 -9 558.03 69.6677 6
 -3 1 -9 456.472 63.8609 7
 -3 1 -10 354.373 57.4951 5
 -3 1 -10 274.039 52.7252 7
 -3 1 -10 346.695 56.7557 4
 -3 1 -10 375.177 60.2658 6
 -3 1 -11 87.7534 48.4438 5
 -3 1 -11 143.215 48.8322 7
 -3 1 -11 166.914 54.7996 4
 -3 1 -11 152.797 47.8607 6
 -3 1 -12 124.877 50.9442 6
 -3 1 -12 -18.9297 44.1909 5
 -3 1 -12 -18.957 44.2548 4
 -3 1 -12 28.7312 43.2487 7
 3 2 -14 859.713 97.9281 5
 -3 2 14 664.798 83.5926 1
 3 2 -14 665.875 89.5901 4
 3 2 -13 244.389 57.9499 5
 -3 2 13 425.312 66.6783 1
 3 2 -13 430.599 66.1731 4
 3 2 -12 488.239 69.4543 5
 -3 2 12 378.905 58.8586 1
 3 2 -12 399.326 60.1892 7
 3 2 -12 460.375 69.9691 4
 3 2 -12 422.857 60.5518 8
 3 2 -12 368.481 59.9035 6
 3 2 -11 1404.07 110.426 5
 -3 2 11 1468.05 108.346 1
 3 2 -11 1528.88 106.091 7
 3 2 -11 1566.27 112.686 4
 3 2 -11 1351.45 103.44 8
 3 2 -11 1591.18 108.402 6
 3 2 -10 2324.96 137.212 5
 -3 2 10 2297.63 135.23 1
 3 2 -10 2191.91 129.038 8
 3 2 -10 2362.48 133.054 7
 3 2 -10 2227.93 134.746 4
 3 2 -10 2386.37 133.819 6
 3 2 -9 145.412 39.722 5
 -3 2 9 51.7632 29.411 1
 3 2 -9 146.218 38.7151 7
 3 2 -9 158.434 41.1885 4
 3 2 -9 153.189 38.2527 6
 3 2 -9 61.4677 29.3504 8
 3 2 -8 2610.03 142.566 5
 -3 2 8 2979.03 146.936 1
 3 2 -8 2943.93 144.54 8
 3 2 -8 2863.43 142.365 7
 3 2 -8 2895.93 146.719 4
 3 2 -8 2870.51 143.27 6
 3 2 -7 697.879 60.9846 5
 -3 2 7 654.734 60.5151 1
 3 2 -7 783.077 62.8494 7
 3 2 -7 741.105 60.92 8
 3 2 -7 668.467 60.1939 4
 3 2 -7 619.875 57.6035 6
 3 2 -6 2556.45 125.172 5
 -3 2 6 2689.43 127.421 1
 3 2 -6 2466.72 122.789 7
 3 2 -6 2534.4 125.168 4
 3 2 -6 2546.03 123.865 6
 3 2 -6 2382.71 121.486 8
 3 2 -5 11426 401.19 5
 -3 2 5 11131.2 401.048 1
 3 2 -5 11380.8 399.732 7
 3 2 -5 10761 398.899 4
 3 2 -5 10945.9 398.535 8
 3 2 -5 10988.3 398.462 6
 3 2 -4 9114.19 322.003 5
 -3 2 4 8723.96 305.221 5
 -3 2 4 8580.3 319.704 1
 -3 2 4 8480.25 304.435 4
 3 2 -4 8776.75 320.535 7
 3 2 -4 8928.91 321.456 4
 3 2 -4 8692.68 319.945 8
 3 2 -4 9050.91 321.069 6
 3 2 -3 1149.58 67.6372 5
 -3 2 3 1089.78 54.2182 5
 -3 2 3 1095.56 65.5976 1
 3 2 -3 1047.9 65.7722 4
 -3 2 3 1196.87 59.5124 8
 3 2 -3 1135.72 54.4756 1
 3 2 -3 1081.63 65.7088 7
 -3 2 3 1161.08 55.1634 4
 3 2 -3 1018.37 65.0906 6
 -3 2 2 3443.2 138.32 1
 3 2 -2 3374.74 139.343 5
 3 2 -2 3148.36 137.794 6
 3 2 -2 3208.34 138.273 4
 3 2 -2 3326.45 120.938 1
 3 2 -2 3214.9 138.347 7
 3 2 -1 6137.17 216.446 3
 -3 2 1 6423.98 224.151 1
 -3 2 1 5973.48 209.673 4
 -3 2 1 5938.12 210.893 7
 3 2 -1 5985.92 201.228 1
 3 2 -1 5786.72 224.873 7
 -3 2 1 5642.25 210.372 6
 3 2 -1 5898.47 225.409 6
 -3 2 1 5903.74 209.912 2
 -3 2 1 6106.16 209.839 5
 -3 2 0 978.977 48.8381 5
 3 2 0 1028.46 52.5653 3
 -3 2 0 946.423 48.6069 4
 -3 2 0 975.533 52.299 7
 3 2 0 953.494 60.2858 7
 3 2 0 969.065 60.3801 6
 -3 2 0 951.918 52.0474 6
 -3 2 0 1015.73 52.2757 2
 -3 2 -1 11190.9 383.194 5
 3 2 1 11338.7 382.836 3
 -3 2 -1 10871.2 388.877 7
 -3 2 -1 11323.8 383.52 4
 -3 2 -1 11552.3 390.544 6
 -3 2 -1 11408.3 390.231 2
 -3 2 -2 659.039 41.9562 5
 -3 2 -2 570.097 39.9156 4
 -3 2 -2 538.602 43.6279 7
 -3 2 -2 626.977 45.3985 6
 -3 2 -3 1061.26 60.7424 5
 -3 2 -3 1045.79 60.8147 4
 -3 2 -3 1130.9 67.5403 7
 -3 2 -3 1021.92 64.9882 6
 -3 2 -4 2675.66 119.164 5
 -3 2 -4 2599.12 118.343 4
 -3 2 -4 2544.72 124.979 7
 -3 2 -4 2578.24 124.934 6
 -3 2 -5 1970.14 99.8576 5
 -3 2 -5 1724.79 95.9357 4
 -3 2 -5 1857.28 104.731 7
 -3 2 -5 1744.76 103.35 6
 -3 2 -6 3442.15 159.022 5
 -3 2 -6 3805.82 163.522 4
 -3 2 -6 3217.85 163.144 7
 -3 2 -6 3490.37 166.535 6
 -3 2 -7 398.859 49.3438 5
 -3 2 -7 421.283 56.1948 7
 -3 2 -7 399.141 51.639 4
 -3 2 -7 448.994 57.7111 6
 -3 2 -8 1707.41 109.956 5
 -3 2 -8 2003.45 115.89 4
 -3 2 -8 1830.56 118.511 7
 -3 2 -8 1815.91 118.852 6
 -3 2 -9 171.57 41.8555 5
 -3 2 -9 149.177 39.2959 7
 -3 2 -9 193.162 41.8865 4
 -3 2 -9 141.881 43.1494 6
 -3 2 -10 118.21 39.1666 5
 -3 2 -10 76.8437 39.9332 7
 -3 2 -10 23.6602 35.6933 4
 -3 2 -10 94.3127 38.1173 6
 -3 2 -11 602.259 74.133 5
 -3 2 -11 654.546 76.2829 4
 -3 2 -11 589.818 77.1779 6
 -3 2 -11 495.303 69.1349 7
 -3 2 -12 65.0485 42.7602 4
 -3 2 -12 74.2855 44.1242 5
 -3 2 -12 128.102 57.3053 6
 -3 2 -12 88.35 52.1261 7
 3 3 -14 273.828 60.1457 5
 -3 3 14 281.909 61.6006 1
 3 3 -14 252.163 64.9826 4
 3 3 -13 704.518 82.161 5
 3 3 -13 688.112 84.8201 7
 3 3 -13 805.865 85.9887 4
 3 3 -13 742.409 85.222 6
 -3 3 13 807.939 89.3135 1
 3 3 -12 70.9317 38.6846 5
 -3 3 12 85.522 45.9616 1
 3 3 -12 50.5828 40.659 7
 3 3 -12 44.166 34.0028 4
 3 3 -12 92.8512 48.565 6
 3 3 -11 925.708 85.8312 5
 -3 3 11 940.734 90.1909 1
 3 3 -11 870.291 81.2158 7
 3 3 -11 754.355 80.5711 6
 3 3 -11 856.684 83.8615 4
 3 3 -10 712.552 76.0447 5
 3 3 -10 802.072 78.8713 7
 3 3 -10 754.617 73.3831 8
 3 3 -10 724.394 75.492 4
 3 3 -10 892.671 80.8011 6
 -3 3 10 911.922 82.9272 1
 -3 3 9 141.652 38.3666 1
 3 3 -9 245.494 46.4498 5
 3 3 -9 152.434 35.8768 8
 3 3 -9 213.392 42.963 7
 3 3 -9 170.536 40.4417 4
 3 3 -9 181.055 41.3287 6
 3 3 -8 5.58801 22.966 8
 -3 3 8 86.3945 28.3505 1
 3 3 -8 -6.19943 27.0204 5
 3 3 -8 30.6001 29.9309 7
 3 3 -8 18.6598 26.0872 4
 3 3 -8 30.7175 31.7628 6
 3 3 -7 2578.56 134.596 5
 -3 3 7 2689.71 137.641 1
 3 3 -7 2670.29 137.269 4
 3 3 -7 2781.8 137.954 6
 3 3 -7 2688.78 136.867 7
 3 3 -7 2594.2 132.088 8
 3 3 -6 2168.14 113.378 8
 3 3 -6 2250.41 117.116 5
 -3 3 6 2318.62 119.459 1
 3 3 -6 2130.31 115.987 7
 3 3 -6 2251.02 117.68 4
 3 3 -6 2320.02 119.235 6
 3 3 -5 753.155 57.7678 8
 3 3 -5 744.483 59.329 5
 -3 3 5 688.379 59.0993 1
 3 3 -5 818.638 61.6461 6
 3 3 -5 760.238 60.6256 7
 3 3 -5 764.832 59.4714 4
 3 3 -4 3270.44 143.836 5
 -3 3 4 3337.48 146.125 1
 3 3 -4 3249.82 142.346 8
 3 3 -4 3025.34 141.12 4
 3 3 -4 3200.77 145.024 6
 3 3 -4 3282.54 145.719 7
 3 3 -3 2828.29 130.696 6
 -3 3 3 2758.78 129.168 1
 3 3 -3 2883.18 130.06 5
 3 3 -3 2829.6 129.722 4
 3 3 -3 2955.61 131.994 7
 -3 3 3 3009.27 118.004 8
 -3 3 2 2819.78 132.696 1
 3 3 -2 3123.63 136.144 5
 3 3 -2 3228.35 138.151 7
 3 3 -2 3129.17 137.198 6
 3 3 -2 3218.98 137.029 4
 -3 3 2 3078.44 120.027 8
 -3 3 1 11234.2 376.639 7
 3 3 -1 11282.3 400.436 7
 -3 3 1 11196.3 376.928 6
 3 3 -1 11173.8 398.958 6
 -3 3 1 11170.1 376.057 2
 -3 3 0 10788.3 371.353 3
 3 3 0 10294.7 384.823 6
 -3 3 0 10879.9 369.801 7
 -3 3 0 10656.3 369.166 6
 3 3 0 10607.7 387.162 7
 -3 3 0 11014.5 361.297 4
 -3 3 0 10685.7 369.367 2
 -3 3 0 11044.8 361.142 5
 -3 3 -1 5516.15 189.992 5
 -3 3 -1 5448.3 189.844 4
 -3 3 -1 5109.31 197.861 7
 3 3 1 5239.69 210.064 7
 -3 3 -1 5252.61 198.6 6
 3 3 1 5115.91 208.5 6
 -3 3 -2 10583.4 375.069 5
 -3 3 -2 10954.5 376.162 4
 -3 3 -2 11355.9 388.008 7
 -3 3 -2 11240.4 387.686 6
 -3 3 -3 1201.76 64.2435 5
 -3 3 -3 1226.29 72.5483 7
 -3 3 -3 1224.17 72.3172 6
 -3 3 -3 1216.14 64.4304 4
 -3 3 -4 3488.58 144.328 5
 -3 3 -4 3350.8 143.172 4
 -3 3 -4 3272.46 152.629 7
 -3 3 -4 3564.72 155.786 6
 -3 3 -5 6828.62 259.792 5
 -3 3 -5 6995.29 260.501 4
 -3 3 -5 6634.81 269.963 7
 -3 3 -5 6573.3 269.71 6
 -3 3 -6 2309.52 119.726 5
 -3 3 -6 2219.14 118.115 4
 -3 3 -6 2349.04 129.05 7
 -3 3 -6 2655.65 134.66 6
 -3 3 -7 33.1667 24.0845 5
 -3 3 -7 -5.53108 24.9755 4
 -3 3 -7 -33.5389 33.7464 7
 -3 3 -7 74.1213 38.7342 6
 -3 3 -8 99.9724 34.6016 5
 -3 3 -8 118.662 42.3768 7
 -3 3 -8 150.053 38.0276 4
 -3 3 -8 164.023 46.1227 6
 -3 3 -9 725.341 71.057 5
 -3 3 -9 756.181 81.3116 7
 -3 3 -9 760.715 72.9998 4
 -3 3 -9 751.789 79.9404 6
 -3 3 -10 -35.258 41.1516 7
 -3 3 -10 17.6951 38.5491 6
 -3 3 -11 434.849 69.8256 7
 -3 3 -11 512.455 73.6089 6
 -3 3 -12 191.995 58.5141 6
 -3 3 -12 251.602 59.4899 7
 -3 4 13 18.5701 39.0279 1
 3 4 -13 134.71 42.784 5
 3 4 -13 95.1135 46.587 7
 3 4 -13 143.762 47.6251 4
 3 4 -13 76.1374 40.7869 6
 -3 4 12 463.699 68.4026 1
 3 4 -12 521.89 73.0219 5
 3 4 -12 548.849 73.0175 7
 3 4 -12 475.04 69.1698 4
 3 4 -12 559.449 74.3803 6
 3 4 -11 325.251 57.5326 5
 -3 4 11 385.098 60.5931 1
 3 4 -11 310.175 56.9588 7
 3 4 -11 415.325 63.7246 4
 3 4 -11 378.042 60.8614 6
 -3 4 10 792.568 80.2895 1
 3 4 -10 1012.27 84.4932 5
 3 4 -10 856.157 81.9654 6
 3 4 -10 726.738 76.4264 7
 3 4 -10 764.354 76.8486 4
 -3 4 9 430.766 57.0102 1
 3 4 -9 484.392 60.2539 5
 3 4 -9 463.524 61.1428 7
 3 4 -9 449.416 58.5186 4
 3 4 -9 611.228 68.026 6
 3 4 -8 7451.29 301.357 5
 -3 4 8 7208.17 300.472 1
 3 4 -8 7125.37 301.862 7
 3 4 -8 7479.7 302.095 4
 3 4 -8 7619.99 305.194 6
 3 4 -8 7397.99 293.08 8
 3 4 -7 1959.93 114.1 5
 -3 4 7 1916.36 113.55 1
 3 4 -7 2042.55 109.325 8
 3 4 -7 1885.08 114.451 7
 3 4 -7 1882.9 112.282 4
 3 4 -7 2019.1 116.622 6
 3 4 -6 1653.81 96.6491 5
 -3 4 6 1621.53 98.9928 1
 3 4 -6 1417.45 89.1828 8
 3 4 -6 1481.36 98.0625 7
 3 4 -6 1598.76 95.6606 4
 3 4 -6 1648.29 101.496 6
 3 4 -5 7905.21 293.781 5
 -3 4 5 7380.83 294.281 1
 3 4 -5 7967.07 298.269 7
 3 4 -5 7151.99 289.323 4
 3 4 -5 7321.52 287.62 8
 3 4 -5 7747.76 297.193 6
 -3 4 4 337.545 43.142 1
 3 4 -4 433.139 47.1859 7
 3 4 -4 323.578 39.3493 4
 3 4 -4 354.016 40.6589 5
 3 4 -4 347.043 44.8293 6
 -3 4 3 2270.44 115.896 1
 3 4 -3 2175.29 112.506 5
 3 4 -3 2672.21 121.745 7
 3 4 -3 2433.01 115.641 4
 3 4 -3 2298.22 116.672 6
 3 4 -2 390.071 42.2603 5
 3 4 -2 396.59 43.2758 7
 3 4 -2 342.595 40.1444 4
 3 4 -2 416.565 44.8962 6
 3 4 -1 1625.36 90.4834 7
 3 4 -1 1739.57 92.3957 6
 3 4 0 3611.65 157.02 6
 3 4 0 3647.45 157.856 7
 -3 4 -1 564.91 41.5094 7
 -3 4 -1 610.13 41.6118 6
 3 4 1 487.203 47.6581 7
 3 4 1 577.013 50.3855 6
 -3 4 -2 2954.52 124.894 7
 3 4 2 2606.01 128.995 7
 -3 4 -2 2886.5 124.282 6
 3 4 2 2709.74 129.92 6
 -3 4 -3 6846.63 267.678 7
 -3 4 -3 7166.64 269.105 6
 -3 4 -4 111.1 30.1488 7
 -3 4 -4 57.9677 26.6863 6
 -3 4 -5 2935.15 143.637 7
 -3 4 -5 2793.35 141.66 6
 -3 4 -6 3065.38 158.176 7
 -3 4 -6 3479.38 165.422 6
 -3 4 -7 2973.52 160.109 7
 -3 4 -7 3225.51 163.529 6
 -3 4 -8 344.163 56.2007 7
 -3 4 -8 329.77 53.7197 6
 -3 4 -9 1563.58 117.772 7
 -3 4 -9 1610.32 118.067 6
 -3 4 -10 63.5527 44.4867 7
 -3 4 -10 127.704 48.4628 6
 -3 4 -11 97.2383 46.2997 7
 -3 4 -11 165.993 52.5801 6
 3 5 -13 67.6789 47.4105 5
 3 5 -13 180.36 59.5197 7
 3 5 -13 105.899 47.8947 4
 3 5 -13 130.299 51.934 6
 3 5 -12 152.596 52.6058 7
 3 5 -12 127.255 44.638 5
 3 5 -12 144.86 46.9843 4
 3 5 -12 105.113 48.2564 6
 -3 5 11 361.967 58.7411 1
 3 5 -11 423.435 61.1806 5
 3 5 -11 285.687 59.8909 7
 3 5 -11 303.552 55.7839 4
 3 5 -11 295.333 60.4995 6
 3 5 -10 1377.33 104.92 5
 -3 5 10 1312.07 103.074 1
 3 5 -10 1349.67 103.619 4
 3 5 -10 1189.22 103.594 7
 3 5 -10 1245.59 106.157 6
 3 5 -9 1290.21 95.2761 5
 -3 5 9 1058.83 90.504 1
 3 5 -9 1272.5 99.4533 7
 3 5 -9 1341.71 101.604 6
 3 5 -9 994.928 88.7432 4
 -3 5 8 601.294 65.9198 1
 3 5 -8 472.214 65.7214 7
 3 5 -8 629.868 65.1394 5
 3 5 -8 619.093 65.3803 4
 3 5 -8 605.045 68.7031 6
 3 5 -7 1287.17 91.8936 5
 -3 5 7 1491.9 98.6903 1
 3 5 -7 1151.84 91.9725 7
 3 5 -7 1436.38 96.7558 4
 3 5 -7 1613.57 102.677 6
 -3 5 6 792.19 70.5827 1
 3 5 -6 678.936 64.8066 5
 3 5 -6 791.574 71.0838 7
 3 5 -6 752.537 66.7255 4
 3 5 -6 795.104 71.3641 6
 3 5 -5 2284.16 122.358 5
 -3 5 5 2418.19 128.068 1
 3 5 -5 2417.66 122.001 8
 3 5 -5 2159.57 125.403 7
 3 5 -5 2495.37 130.209 6
 -3 5 4 2141.58 118.674 1
 3 5 -4 2242.9 114.839 5
 3 5 -4 2181.29 114.168 4
 3 5 -4 2305.13 120.727 7
 3 5 -4 2311.27 121.28 6
 -3 5 3 1529.94 90.6546 1
 3 5 -3 1370.61 82.0554 5
 3 5 -3 1274.6 84.5312 7
 3 5 -3 1269.98 80.1545 4
 3 5 -3 1371.77 86.5025 6
 3 5 -2 2097.94 108.886 5
 3 5 -2 2209.19 113.56 7
 3 5 -2 2122.49 109.553 4
 3 5 -2 2269.14 114.642 6
 3 5 -1 2321.98 111.917 5
 3 5 -1 2110.98 112.239 7
 3 5 -1 2106.18 109.467 4
 3 5 -1 2216.75 113.093 6
 3 5 0 2521.04 125.673 7
 3 5 0 2699.16 128.544 6
 3 5 1 1909.58 102.596 7
 3 5 1 1902.34 103.262 6
 3 5 2 1024.06 72.3975 7
 3 5 2 1120.32 73.9445 6
 -3 5 -3 1643.74 89.6855 7
 3 5 3 1483.24 90.3786 7
 -3 5 -3 1614.26 88.2082 6
 3 5 3 1370.76 88.2431 6
 -3 5 -4 282.738 43.438 7
 -3 5 -4 267.235 41.271 6
 -3 5 -5 2896.59 145.235 7
 -3 5 -5 2882.89 145.328 6
 -3 5 -6 1827.55 114.026 7
 -3 5 -6 2027.15 117.795 6
 -3 5 -7 1937.24 124.534 7
 -3 5 -7 2009.22 126.705 6
 -3 5 -8 300.221 58.4097 7
 -3 5 -8 395.262 63.1408 6
 -3 5 -9 972.853 94.0316 7
 -3 5 -9 1036.05 97.0074 6
 -3 5 -10 492.818 70.4677 7
 -3 5 -10 447.635 68.0199 6
 -3 5 -11 358.984 68.1319 7
 -3 5 -11 460.767 73.401 6
 3 6 -12 100.402 47.0329 7
 3 6 -12 150.854 54.7867 6
 3 6 -11 226.869 58.5569 7
 3 6 -11 160.947 51.1877 6
 -3 6 10 2375.83 147.26 1
 3 6 -10 2202.23 145.162 7
 3 6 -10 2275.39 147.027 6
 -3 6 9 882.96 87.7641 1
 3 6 -9 957.396 86.6781 5
 3 6 -9 944.613 91.235 7
 3 6 -9 1045.99 89.2952 4
 3 6 -9 1016.45 92.9751 6
 -3 6 8 1125.85 92.0172 1
 3 6 -8 947.539 83.564 5
 3 6 -8 1094.59 88.2148 4
 3 6 -8 954.87 89.6452 7
 3 6 -8 1107.09 95.5021 6
 -3 6 7 96.6493 39.9549 1
 3 6 -7 168.353 39.5725 7
 3 6 -7 169.658 38.6371 5
 3 6 -7 144.884 35.3426 4
 3 6 -7 147.098 41.17 6
 3 6 -6 3589.32 178.403 5
 -3 6 6 4281.12 193.553 1
 3 6 -6 3932.36 190.281 7
 3 6 -6 3964.34 182.436 4
 3 6 -6 4195.04 194.059 6
 -3 6 5 716.898 68.8881 1
 3 6 -5 607.782 58.4687 5
 3 6 -5 658.64 68.0145 7
 3 6 -5 625.347 59.6229 4
 3 6 -5 661.533 66.7827 6
 -3 6 4 2650.82 144.61 1
 3 6 -4 2821.51 138.226 5
 3 6 -4 2946.37 147.836 7
 3 6 -4 2904.9 139.47 4
 3 6 -4 2960.74 147.587 6
 3 6 -3 -11.2159 27.8198 7
 3 6 -3 -4.88064 23.5104 5
 3 6 -3 43.9327 22.7906 4
 3 6 -3 11.2663 25.8721 6
 3 6 -2 2827.24 131.161 4
 3 6 -2 2584.44 133.345 7
 3 6 -2 2513.18 127.321 5
 3 6 -2 2678.98 134.597 6
 3 6 -1 1611.06 93.8781 5
 3 6 -1 1805.47 100.491 7
 3 6 -1 1576.57 92.938 4
 3 6 -1 1677.16 99.0686 6
 3 6 0 1963.79 111.283 7
 3 6 0 2334.35 117.245 6
 3 6 1 403.905 46.5837 7
 3 6 1 396.078 45.7074 6
 -3 6 -6 207.888 45.7996 7
 -3 6 -6 201.048 44.0113 6
 -3 6 -7 118.823 42.7418 7
 -3 6 -7 29.6873 35.8112 6
 -3 6 -8 65.136 41.0634 7
 -3 6 -8 122.103 45.3667 6
 -3 6 -9 230.031 55.82 7
 -3 6 -9 150.473 46.7153 6
 -3 6 -10 -9.5196 34.7955 7
 -3 6 -10 -19.0793 34.8688 6
 3 7 -11 168.809 54.7247 7
 3 7 -11 79.543 46.5674 6
 3 7 -10 386.26 68.1632 7
 3 7 -10 236.588 58.0106 6
 3 7 -9 914.354 93.5308 7
 3 7 -9 1266.07 105.649 6
 -3 7 8 161.925 43.3766 1
 3 7 -8 258.871 55.5152 7
 3 7 -8 217.869 54.3591 6
 -3 7 7 294.665 50.3003 1
 3 7 -7 298.95 58.2692 6
 3 7 -7 290.06 58.4406 7
 -3 7 6 1847.64 118.109 1
 3 7 -6 1700.12 116.64 7
 3 7 -6 1641.72 115.422 6
 3 7 -5 152.458 41.6718 7
 3 7 -5 97.4636 34.7449 6
 3 7 -4 1015.03 82.1731 7
 3 7 -4 1032.31 82.0956 6
 3 7 -3 2609.78 138.607 7
 3 7 -3 2702.17 140.812 6
 3 7 -2 332.3 46.4612 6
 3 7 -2 307.358 44.1358 7
 3 7 -1 1713.34 101.909 7
 3 7 -1 1562.96 100.112 6
 -3 7 -9 135.685 46.4284 7
 -3 7 -9 199.083 52.8256 6
 -3 7 -10 48.4471 47.4406 7
 -3 7 -10 116.469 51.5319 6
 3 8 -10 19.6798 43.6601 7
 3 8 -10 9.86957 44.5667 6
 3 8 -9 102.849 49.0692 7
 3 8 -9 103.331 41.8076 6
 3 8 -8 221.061 56.6496 7
 3 8 -8 97.609 43.6245 6
 3 8 -7 433.824 66.0523 7
 3 8 -7 460.65 66.6699 6
 3 8 -6 70.7894 40.1796 7
 3 8 -6 71.0812 42.9762 6
 3 8 -5 52.0201 41.3481 7
 3 8 -5 22.3827 38.0696 6
 3 8 -4 609.557 67.0641 7
 3 8 -4 464.56 61.9676 6
 3 9 -9 175.232 51.8158 7
 3 9 -9 107.519 48.6891 6
 3 9 -8 120.283 49.9851 7
 3 9 -8 241.508 55.8968 6
 3 9 -7 218.902 53.4217 7
 3 9 -7 228.486 52.0714 6
 4 -11 -1 217.535 56.6579 1
 -4 -10 6 300.1 61.6626 3
 4 -10 -6 164.924 47.0431 3
 -4 -10 5 191.574 50.1417 3
 4 -10 -5 350.633 66.6154 3
 4 -10 -4 87.5029 48.9201 3
 -4 -10 4 9.53701 31.9978 3
 4 -10 -4 18.1639 33.2041 1
 4 -10 -3 603.832 79.9328 3
 -4 -10 3 520.493 74.8867 3
 4 -10 -3 418.106 66.1813 1
 -4 -10 2 513.603 76.9144 3
 4 -10 -2 457.562 75.0393 1
 4 -10 -2 416.816 68.2569 3
 -4 -10 1 1042.13 98.2488 3
 4 -10 -1 1158 106.007 1
 4 -10 0 349.993 67.9361 1
 -4 -10 0 409.928 62.778 3
 4 -10 1 57.5811 42.6457 1
 -4 -10 -1 90.4097 40.8923 3
 -4 -10 -2 8.97066 42.5526 3
 4 -10 2 29.3551 44.186 1
 4 -10 3 509.163 77.5247 1
 -4 -9 8 250.137 56.6535 3
 4 -9 -8 286.621 65.3528 3
 -4 -9 7 265.539 60.3462 3
 4 -9 -7 387.767 65.9135 3
 -4 -9 6 351.819 64.3294 3
 4 -9 -6 374.964 65.518 3
 4 -9 -6 359.671 61.3051 1
 4 -9 -5 352.888 66.5573 3
 4 -9 -5 344.843 58.9007 1
 -4 -9 5 354.761 60.9896 3
 4 -9 -4 17.0812 35.0818 1
 -4 -9 4 -17.5756 34.5605 3
 4 -9 -4 17.8757 44.9647 3
 4 -9 -3 42.438 39.6381 1
 -4 -9 3 17.3624 33.3736 3
 4 -9 -3 51.6037 45.0478 3
 4 -9 -2 237.884 54.1396 1
 -4 -9 2 221.852 52.4551 3
 4 -9 -2 140.776 46.9903 3
 -4 -9 1 1217.89 102.494 3
 4 -9 -1 1151.97 100.785 1
 4 -9 0 43.8014 44.6853 1
 -4 -9 0 8.27827 37.3861 3
 4 -9 1 330.833 60.5976 1
 -4 -9 -1 385.725 59.8974 3
 -4 -9 -2 1212.28 103.361 3
 4 -9 2 1434.74 114.622 1
 4 -9 3 626.497 80.1496 1
 4 -9 4 28.8608 44.1907 1
 4 -9 5 129.138 56.527 1
 -4 -9 -5 28.0437 41.5238 8
 -4 -9 -6 127.209 53.9549 8
 4 -8 -10 483.371 73.2887 3
 4 -8 -9 127.46 45.2111 3
 -4 -8 8 60.8585 38.6262 3
 4 -8 -8 66.5131 47.1768 3
 4 -8 -7 110.636 44.464 3
 -4 -8 7 110.598 43.4476 3
 4 -8 -7 16.8986 36.8796 1
 4 -8 -6 88.7536 40.2 3
 4 -8 -6 123.478 46.4095 1
 -4 -8 6 91.5961 40.2328 3
 4 -8 -5 339.004 56.3736 1
 4 -8 -5 435.762 67.2139 3
 -4 -8 5 414.979 63.3909 3
 -4 -8 4 2156.64 137.923 3
 4 -8 -4 2323.32 142.562 3
 4 -8 -4 2137.95 136.071 1
 -4 -8 3 149.64 46.8066 3
 4 -8 -3 101.495 41.5281 3
 4 -8 -3 70.5752 37.3344 1
 4 -8 -2 529.097 67.5284 3
 -4 -8 2 501.024 66.9851 3
 4 -8 -2 398.44 61.8944 1
 -4 -8 1 196.432 43.9055 3
 4 -8 -1 262.949 52.685 3
 4 -8 -1 157.175 48.8498 1
 -4 -8 0 259.863 49.4695 3
 4 -8 0 167.76 44.4256 1
 4 -8 1 394.904 61.8617 1
 -4 -8 -1 403.606 55.819 3
 4 -8 2 185.086 48.0952 1
 -4 -8 -2 99.8891 40.5337 8
 -4 -8 -2 188.893 42.0504 3
 -4 -8 -3 370.982 58.8067 8
 4 -8 3 441.155 62.8763 1
 -4 -8 -4 16.9611 34.842 8
 4 -8 4 26.7943 35.9216 1
 -4 -8 -5 749.739 85.8522 8
 4 -8 5 778.294 88.8631 1
 -4 -8 -6 627.994 81.0328 8
 4 -8 6 822.117 93.8145 1
 4 -8 7 88.9577 43.9262 1
 -4 -8 -7 68.953 43.7767 8
 4 -7 -11 28.9847 45.8353 3
 4 -7 -10 282.202 54.2472 3
 -4 -7 9 1152.95 99.9535 3
 4 -7 -9 1109.81 101.312 3
 -4 -7 8 495.514 67.4797 3
 4 -7 -8 473.011 69.0678 3
 -4 -7 7 416.77 62.4426 3
 4 -7 -7 277.348 55.6461 3
 4 -7 -6 1381.99 104.838 3
 4 -7 -6 1219.53 99.9996 1
 -4 -7 6 1268.91 100.129 3
 4 -7 -5 700.095 72.3074 1
 4 -7 -5 538.401 69.2911 3
 -4 -7 5 631.045 69.3545 3
 4 -7 -4 29.1669 31.8968 1
 -4 -7 4 144.511 39.3668 3
 4 -7 -4 132.366 42.3671 3
 -4 -7 3 380.949 57.7673 3
 4 -7 -3 336.894 55.0237 3
 4 -7 -3 451.24 57.9922 1
 -4 -7 2 3090.94 157.872 3
 4 -7 -2 2733.26 152.041 3
 4 -7 -2 2875.36 154.743 1
 -4 -7 1 235.239 46.1666 3
 4 -7 -1 258.237 45.8588 3
 4 -7 -1 277.587 47.6997 1
 -4 -7 0 2130.62 126.731 3
 4 -7 0 2314.17 135.022 1
 -4 -7 -1 1832.51 115.036 3
 4 -7 1 2022.33 125.345 1
 -4 -7 -2 2420.23 134.6 3
 -4 -7 -2 2500.31 142.936 8
 4 -7 2 2542.84 146.753 1
 -4 -7 -3 15.1138 29.0389 8
 4 -7 3 7.90679 36.9142 1
 -4 -7 -4 845.435 82.0835 8
 4 -7 4 761.766 79.4713 1
 -4 -7 -5 210.286 50.8395 8
 4 -7 5 222.71 49.2003 1
 4 -7 6 425.791 66.2556 1
 -4 -7 -6 427.428 63.4979 8
 -4 -7 -7 18.7922 37.8028 8
 4 -7 7 64.662 44.51 1
 4 -7 8 96.1331 47.7665 1
 -4 -7 -8 79.1151 42.3712 8
 4 -6 -12 295.903 61.6798 8
 4 -6 -11 192.337 47.7359 3
 4 -6 -10 44.2509 40.669 3
 4 -6 -9 1591.25 116.578 3
 -4 -6 9 1600.35 114.869 3
 -4 -6 8 620.868 69.6769 3
 4 -6 -8 602.25 70.3177 3
 -4 -6 7 174.385 41.2536 3
 4 -6 -7 178.328 46.7656 3
 4 -6 -6 1567.75 109.104 3
 -4 -6 6 1494.96 103.864 3
 4 -6 -5 4040.6 192.745 3
 -4 -6 5 3883.39 188.552 3
 -4 -6 4 1062.81 83.2243 3
 4 -6 -4 899.148 77.5843 3
 4 -6 -4 966.527 82.7459 1
 -4 -6 3 3138.25 158.813 3
 4 -6 -3 3232.39 159.923 3
 4 -6 -3 3192.35 161.357 1
 -4 -6 2 3515.21 172.972 3
 4 -6 -2 3783.55 174.307 3
 4 -6 -2 3701.68 177.636 1
 -4 -6 1 2959.77 151.116 3
 4 -6 -1 3238.12 152.177 3
 4 -6 -1 2962.96 155.52 1
 -4 -6 0 22.502 25.4683 5
 -4 -6 0 57.5142 28.9936 3
 -4 -6 0 78.643 29.8461 4
 4 -6 0 90.3594 31.6097 1
 -4 -6 -1 1563.88 97.259 3
 -4 -6 -1 1645.12 102.483 8
 -4 -6 -1 1510.39 98.5031 4
 4 -6 1 1579.4 104.733 1
 -4 -6 -1 1347.19 95.8595 5
 -4 -6 -2 864.271 74.526 5
 4 -6 2 881.177 79.0419 1
 -4 -6 -2 806.328 68.6814 3
 -4 -6 -2 838.667 74.8934 8
 -4 -6 -2 917.467 76.7485 4
 -4 -6 -3 2461.5 140.696 5
 -4 -6 -3 2784.88 149.796 8
 -4 -6 -3 2562.63 143.188 4
 4 -6 3 3011.33 155.276 1
 -4 -6 -4 139.804 40.1503 5
 -4 -6 -4 185.438 46.3723 8
 -4 -6 -4 141.739 38.6808 4
 4 -6 4 141.407 44.385 1
 -4 -6 -5 63.7323 32.0018 5
 -4 -6 -5 39.4168 32.409 8
 -4 -6 -5 28.7057 31.2943 4
 4 -6 5 31.291 37.1275 1
 -4 -6 -6 302.576 51.9589 5
 4 -6 6 228.418 50.6419 1
 -4 -6 -6 291.504 51.4776 4
 -4 -6 -6 351.397 59.8249 8
 -4 -6 -7 89.1194 40.9967 5
 -4 -6 -7 177.453 51.1928 8
 4 -6 7 128.238 46.111 1
 -4 -6 -7 187.847 50.9774 4
 -4 -6 -8 234.418 55.7782 8
 4 -6 8 349.517 63.5215 1
 4 -6 9 56.1075 43.6629 1
 -4 -6 -9 -69.1904 44.6381 8
 4 -5 -13 161.04 56.1379 8
 -4 -5 13 113.468 45.047 1
 4 -5 -12 413.899 68.89 8
 -4 -5 12 344.51 59.0652 1
 4 -5 -11 720.567 80.833 8
 4 -5 -11 600.427 77.9946 3
 -4 -5 11 775.199 81.1111 1
 4 -5 -10 333.344 57.5813 8
 4 -5 -10 242.596 55.4879 3
 -4 -5 9 51.3455 30.2121 3
 4 -5 -9 79.9107 36.7665 3
 4 -5 -9 86.644 36.3925 8
 -4 -5 8 459.358 61.1813 3
 4 -5 -8 479.103 57.4178 8
 4 -5 -8 494.612 64.3424 3
 4 -5 -7 3548.77 183.59 3
 -4 -5 7 3929.15 185.052 3
 -4 -5 6 672.283 68.4595 3
 4 -5 -6 832.425 74.3248 3
 4 -5 -5 3488.21 171.52 3
 -4 -5 5 3541.85 170.514 3
 4 -5 -4 7216.17 287.105 3
 -4 -5 4 6881.76 283.682 3
 -4 -5 3 6061.81 248.568 3
 4 -5 -3 5932.6 247.943 3
 4 -5 -3 6123.84 251.738 1
 -4 -5 2 2808.23 140.746 3
 4 -5 -2 2878.8 139.172 3
 4 -5 -2 2911.99 145.808 1
 -4 -5 1 376.785 48.5194 5
 4 -5 -1 384.485 48.7973 1
 -4 -5 1 439.029 49.8543 3
 -4 -5 1 454.365 53.5081 4
 4 -5 -1 443.856 46.7433 3
 -4 -5 0 550.434 57.2462 5
 -4 -5 0 765.158 59.8993 3
 4 -5 0 609.701 52.0902 3
 -4 -5 0 430.261 51.4179 4
 4 -5 0 689.247 61.8641 1
 -4 -5 -1 48.3311 28.8396 5
 -4 -5 -1 34.9553 28.4916 8
 -4 -5 -1 -4.79589 24.7981 3
 4 -5 1 29.2746 27.7791 1
 -4 -5 -1 21.5857 25.6052 4
 -4 -5 -2 1342.65 90.8101 5
 -4 -5 -2 1344.92 83.5526 3
 -4 -5 -2 1367.61 94.5201 8
 -4 -5 -2 1473.46 94.5785 4
 4 -5 2 1383.06 94.6939 1
 4 -5 3 6.37037 30.2263 1
 -4 -5 -3 59.8799 30.5509 5
 -4 -5 -3 54.6335 30.5499 4
 -4 -5 -3 -6.45221 25.9582 8
 -4 -5 -4 919.174 78.6439 5
 -4 -5 -4 905.561 81.1236 8
 -4 -5 -4 804.83 71.7736 7
 -4 -5 -4 972.785 75.3678 2
 -4 -5 -4 822.778 73.0089 6
 4 -5 4 1035.92 84.1108 1
 -4 -5 -4 1028.47 83.341 4
 -4 -5 -5 329.236 53.3199 5
 -4 -5 -5 408.614 57.1507 4
 4 -5 5 523.531 63.7949 1
 -4 -5 -5 380.404 56.0013 8
 -4 -5 -6 619.795 68.4795 5
 -4 -5 -6 577.477 69.47 8
 4 -5 6 468.319 62.1444 1
 -4 -5 -6 483.446 64.3273 4
 -4 -5 -7 79.3939 39.9503 5
 -4 -5 -7 24.9345 36.8856 8
 -4 -5 -7 7.98108 33.4698 4
 4 -5 7 7.84586 32.9031 1
 -4 -5 -8 775 82.2212 5
 -4 -5 -8 717.33 81.2933 8
 -4 -5 -8 710.55 81.3618 4
 4 -5 8 588.818 74.9253 1
 -4 -5 -9 1255.08 108.539 5
 4 -5 9 1270.6 106.003 1
 -4 -5 -9 1378.99 114.791 8
 -4 -5 -9 1069.63 100.621 4
 4 -5 10 237.376 58.8057 1
 -4 -5 -10 203.031 56.1057 5
 -4 -5 -10 349.839 65.1298 4
 -4 -5 -10 207.662 52.3486 8
 4 -4 -13 197.318 57.2147 8
 -4 -4 13 280.489 59.6683 1
 4 -4 -12 394.281 63.702 8
 -4 -4 12 390.284 63.7972 1
 4 -4 -11 67.5752 35.487 8
 -4 -4 11 47.9493 35.5312 1
 4 -4 -11 115.356 43.7551 3
 4 -4 -10 202.131 46.9075 8
 -4 -4 10 123.67 41.322 1
 4 -4 -10 196.953 46.5975 3
 -4 -4 10 216.649 46.8667 3
 -4 -4 9 152.309 42.4619 3
 4 -4 -9 92.2449 33.3833 8
 4 -4 -9 104.685 40.8423 3
 -4 -4 9 196.755 43.1482 1
 4 -4 -8 89.867 36.2594 8
 -4 -4 8 105.415 36.7956 3
 4 -4 -8 112.93 38.9507 3
 -4 -4 8 110.979 34.0953 1
 -4 -4 7 181.827 38.9819 3
 4 -4 -7 132.595 40.0389 3
 4 -4 -7 177.623 36.3277 8
 -4 -4 7 159.051 32.8945 1
 4 -4 -6 409.13 54.494 3
 -4 -4 6 301.462 45.8052 3
 4 -4 -6 389.052 46.6801 8
 4 -4 -5 3673.77 170.381 3
 4 -4 -5 3565.14 157.21 8
 -4 -4 5 3513.89 166.183 3
 4 -4 -4 2747.48 136.343 3
 -4 -4 4 2681.51 134.053 3
 -4 -4 3 98.7273 31.1153 3
 4 -4 -3 88.6885 26.9377 3
 -4 -4 2 1365.93 87.3353 3
 4 -4 -2 1678.87 91.7551 3
 4 -4 -2 1638.89 93.8173 1
 -4 -4 1 3546.33 157.147 3
 4 -4 -1 3360.49 153.256 3
 -4 -4 1 3658.45 163.414 4
 4 -4 -1 3795.87 164.901 1
 -4 -4 1 3687.61 163.43 5
 4 -4 0 585.319 54.5746 1
 -4 -4 0 569.516 52.7181 5
 -4 -4 0 448.767 49.2101 4
 -4 -4 0 564.443 49.1101 3
 4 -4 0 544.761 44.4251 3
 -4 -4 -1 2106.42 102.164 3
 -4 -4 -1 1900.86 107.902 8
 4 -4 1 1991.94 108.721 1
 -4 -4 -1 1838.9 106.042 4
 -4 -4 -1 1997.54 108.652 5
 -4 -4 -2 942.334 72.8195 5
 -4 -4 -2 1001.49 64.8979 3
 -4 -4 -2 984.012 77.3992 8
 4 -4 2 1070.2 75.9522 1
 -4 -4 -2 1081.78 75.2542 2
 -4 -4 -2 1049.55 75.9138 4
 4 -4 3 712.297 63.5334 1
 -4 -4 -3 668.796 63.048 5
 -4 -4 -3 860.429 70.2669 8
 -4 -4 -3 724.613 65.7643 7
 -4 -4 -3 775.298 67.1363 4
 -4 -4 -3 628.357 64.1127 6
 -4 -4 -3 772.003 66.0914 2
 -4 -4 -4 2716.51 141.255 5
 -4 -4 -4 2694.22 141.644 8
 -4 -4 -4 2884.41 144.453 4
 -4 -4 -4 2572.95 136.642 7
 4 -4 4 2500.33 136.736 1
 -4 -4 -4 2563.98 136.949 6
 -4 -4 -4 2747.49 136.881 2
 -4 -4 -5 3727.24 185.38 5
 -4 -4 -5 3657.59 184.881 8
 -4 -4 -5 3969.52 188.17 4
 -4 -4 -5 3813.82 181.562 7
 4 -4 5 4135.47 187.401 1
 -4 -4 -5 4097.83 185.781 6
 -4 -4 -5 3786.99 179.466 2
 -4 -4 -6 3295.16 169.419 5
 -4 -4 -6 3248.52 168.937 4
 -4 -4 -6 3189.71 162.811 7
 4 -4 6 3223.06 164.127 1
 -4 -4 -6 3184.98 162.771 6
 -4 -4 -6 3281.84 162.629 2
 -4 -4 -6 3046.85 165.6 8
 -4 -4 -7 402.543 61.4223 5
 -4 -4 -7 387.61 59.0517 8
 4 -4 7 463.893 59.0423 1
 -4 -4 -7 489.915 66.0153 4
 -4 -4 -8 317.094 56.9622 5
 4 -4 8 266.221 53.2623 1
 -4 -4 -8 358.017 60.5753 8
 -4 -4 -8 410.956 62.9988 4
 4 -4 9 434.82 63.4451 1
 -4 -4 -9 394.805 66.2182 5
 -4 -4 -9 522.504 71.834 4
 -4 -4 -9 416.868 66.3292 8
 -4 -4 -10 -19.1658 35.0261 5
 -4 -4 -10 18.7881 37.7772 8
 -4 -4 -10 57.725 39.5212 4
 -4 -4 -11 1017.84 102.278 8
 -4 -4 -11 1036.12 107.565 5
 -4 -4 -11 1102.12 108.687 4
 4 -3 -13 251.107 57.6178 8
 -4 -3 13 157.106 53.5074 1
 4 -3 -12 143.927 44.901 8
 -4 -3 12 171.194 47.8693 1
 4 -3 -11 292.103 54.8948 8
 -4 -3 11 290.476 53.3714 1
 4 -3 -11 234.277 53.4991 3
 4 -3 -10 1849.62 123.768 3
 -4 -3 10 1953.2 123.274 1
 4 -3 -10 2136.53 129.422 8
 -4 -3 10 1854.81 118.592 3
 -4 -3 9 243.176 43.4746 3
 4 -3 -9 230.986 45.4954 8
 -4 -3 9 153.755 38.848 1
 4 -3 -9 154.268 43.2404 3
 -4 -3 8 301.792 44.6586 1
 -4 -3 8 429.402 52.1176 3
 4 -3 -8 316.034 48.1795 8
 4 -3 -8 249.941 45.2653 3
 4 -3 -7 2670.66 140.77 3
 4 -3 -7 2527.61 133.695 8
 -4 -3 7 2641.42 130.146 1
 -4 -3 7 2667.02 137.204 3
 4 -3 -6 4590.99 204.217 3
 -4 -3 6 4535.09 191.027 1
 4 -3 -6 4706.49 199.362 8
 -4 -3 6 4853.95 204.404 3
 -4 -3 5 4968.57 195.865 1
 4 -3 -5 5227.35 213.729 3
 4 -3 -5 4678.01 201.267 8
 -4 -3 5 5159.1 211.944 3
 4 -3 -4 743.083 52.9283 8
 -4 -3 4 689.454 57.0452 3
 4 -3 -4 669.255 57.9354 3
 4 -3 -3 4638.34 188.845 3
 4 -3 -3 4353.62 175.504 8
 -4 -3 3 4533.04 187.818 3
 4 -3 -2 3446.8 147.011 3
 4 -3 -2 3217.59 134.457 8
 4 -3 -2 3388.94 150.288 1
 -4 -3 2 3505.12 148.972 3
 4 -3 -1 433.395 43.407 1
 -4 -3 1 432.382 45.3066 5
 -4 -3 1 490.296 47.7065 4
 4 -3 -1 465.317 40.3485 3
 -4 -3 1 446.067 40.7414 3
 -4 -3 0 5862.84 226.787 3
 4 -3 0 5665.25 221.865 3
 -4 -3 0 6115.29 238.24 4
 4 -3 0 6199.99 236.509 1
 -4 -3 0 6167.08 238.812 5
 -4 -3 -1 84.6293 28.615 5
 -4 -3 -1 104.96 26.4345 8
 -4 -3 -1 106.709 27.149 7
 -4 -3 -1 85.47 28.3416 4
 4 -3 1 99.7969 26.1864 1
 -4 -3 -1 75.2088 26.6404 6
 -4 -3 -1 160.98 31.0905 2
 -4 -3 -1 110.147 22.4529 3
 -4 -3 -2 3654.29 166.969 5
 -4 -3 -2 3701.17 167.981 8
 -4 -3 -2 3695.71 168.59 4
 -4 -3 -2 3885.56 169.585 7
 -4 -3 -2 3999.02 171.403 6
 4 -3 2 3678.45 164.039 1
 -4 -3 -2 3668.7 165.205 2
 -4 -3 -3 3306.3 160.265 5
 4 -3 3 3510.44 157.939 1
 -4 -3 -3 3318.15 157.869 2
 -4 -3 -3 3712.83 163.812 7
 -4 -3 -3 3396.84 160.732 6
 -4 -3 -3 3496.41 161.801 8
 -4 -3 -3 3510.96 162.469 4
 -4 -3 -4 7045.33 285.212 5
 -4 -3 -4 6590.84 280.885 8
 -4 -3 -4 7491.77 288.957 4
 -4 -3 -4 6839.09 282.336 7
 4 -3 4 7291.66 281.046 1
 -4 -3 -4 7019.56 284.057 6
 -4 -3 -4 7299.55 283.353 2
 -4 -3 -5 3503.83 170.509 5
 -4 -3 -5 3579.49 169.622 8
 -4 -3 -5 3432.36 170.422 4
 -4 -3 -5 3518.88 168.331 7
 4 -3 5 3520.62 164.544 1
 -4 -3 -5 3562.73 168.83 6
 -4 -3 -5 3212.5 163.708 2
 -4 -3 -6 1139.05 90.421 5
 -4 -3 -6 1317.48 93.2559 8
 -4 -3 -6 1234.91 92.8176 4
 -4 -3 -6 1174.8 88.269 7
 4 -3 6 1149.73 84.5422 1
 -4 -3 -6 1303.79 92.5981 6
 -4 -3 -6 1139.1 86.2204 2
 -4 -3 -7 1683.83 113.797 5
 -4 -3 -7 1735.96 113.068 8
 -4 -3 -7 1583.9 110.371 7
 4 -3 7 1503.53 104.36 1
 -4 -3 -7 1770.24 113.947 6
 -4 -3 -7 1880.24 119.515 4
 -4 -3 -7 1727.43 112.056 2
 -4 -3 -8 522.112 66.9834 5
 -4 -3 -8 309.727 52.429 8
 -4 -3 -8 354.467 56.9289 7
 -4 -3 -8 425.896 62.8919 4
 -4 -3 -8 344.308 55.9359 6
 -4 -3 -8 306.578 53.5717 2
 -4 -3 -9 263.811 58.4173 5
 -4 -3 -9 125.003 44.6645 8
 -4 -3 -9 273.489 57.1868 4
 -4 -3 -10 1934.76 138.995 5
 -4 -3 -10 1871.97 130.653 8
 -4 -3 -10 1988.38 138.45 4
 -4 -3 -11 512.629 79.8648 5
 -4 -3 -11 544.047 73.5118 8
 -4 -3 -11 484.037 76.9259 4
 4 -2 -14 261.073 61.6897 8
 -4 -2 14 444.277 68.6361 1
 4 -2 -13 1155.7 105.921 8
 -4 -2 13 1224.68 108.687 1
 4 -2 -12 302.583 56.4121 8
 -4 -2 12 203.949 53.9187 1
 4 -2 -11 2156.45 131.104 5
 4 -2 -11 2199.1 134.624 3
 4 -2 -11 2180.43 137.712 8
 4 -2 -11 2083.24 130.341 4
 -4 -2 11 2282.16 137.18 1
 4 -2 -10 767.608 73.2165 5
 -4 -2 10 727.385 69.6342 3
 4 -2 -10 741.025 75.1744 8
 4 -2 -10 680.444 71.1154 3
 4 -2 -10 600.133 67.7765 4
 -4 -2 10 572.792 67.4087 1
 4 -2 -9 1425.63 95.276 5
 4 -2 -9 1340.27 97.1914 3
 -4 -2 9 1471.09 98.5252 1
 4 -2 -9 1390.94 93.973 4
 -4 -2 9 1664.33 102.946 3
 4 -2 -9 1421.17 101.305 8
 4 -2 -8 1902.56 109.831 5
 4 -2 -8 2075.69 119.616 3
 4 -2 -8 1847.24 116.235 8
 4 -2 -8 2002.69 112.182 4
 -4 -2 8 2114.43 115.78 1
 -4 -2 8 2252.27 120.507 3
 4 -2 -7 23.2409 22.0617 5
 -4 -2 7 5.551 25.0775 3
 4 -2 -7 -5.61316 27.8556 8
 -4 -2 7 44.557 26.9143 1
 4 -2 -7 57.8509 27.4512 3
 4 -2 -7 41.932 25.027 4
 -4 -2 6 387.153 47.1231 3
 4 -2 -6 555.791 51.6343 8
 -4 -2 6 489.147 46.03 1
 4 -2 -6 462.975 43.8247 5
 4 -2 -6 427.49 50.842 3
 4 -2 -6 452.667 43.3169 4
 4 -2 -5 789.685 53.313 5
 -4 -2 5 682.78 50.9409 1
 4 -2 -5 738.081 56.2166 8
 4 -2 -5 738.811 52.101 4
 4 -2 -5 611.437 55.1983 3
 -4 -2 5 743.609 59.3868 3
 4 -2 -4 1200.88 65.6668 5
 4 -2 -4 1346.21 79.1745 3
 -4 -2 4 1290.64 67.4208 1
 4 -2 -4 1133.06 64.7029 4
 4 -2 -4 1249.34 72.8514 8
 -4 -2 4 1246.14 76.7794 3
 4 -2 -3 5837.74 210.615 5
 4 -2 -3 5700.4 221.387 3
 -4 -2 3 5330 205.359 1
 4 -2 -3 5322.05 213.661 8
 4 -2 -3 5494.66 205.958 7
 4 -2 -3 5688.71 206.135 6
 -4 -2 3 6032.52 224.044 3
 4 -2 -3 5951.43 211.3 4
 4 -2 -2 2887.81 118.948 5
 4 -2 -2 2923.99 126.708 3
 4 -2 -2 2796.05 117.484 7
 4 -2 -2 2800.2 118.185 4
 4 -2 -2 2759 116.852 6
 4 -2 -2 2892.52 121.051 8
 -4 -2 2 3163.41 129.812 3
 -4 -2 1 391.566 40.7505 5
 4 -2 -1 501.428 37.9559 3
 -4 -2 1 444.325 38.0842 3
 4 -2 -1 388.045 32.6436 8
 -4 -2 1 371.133 41.1749 4
 -4 -2 0 547.086 48.3528 5
 4 -2 0 508.202 38.3918 3
 -4 -2 0 554.579 49.8355 4
 4 -2 0 587.175 46.0604 1
 -4 -2 0 488.967 47.7567 2
 -4 -2 0 539.98 40.5697 3
 -4 -2 -1 12029.7 414.859 5
 -4 -2 -1 11617.6 412.43 8
 -4 -2 -1 11367.4 413.063 7
 -4 -2 -1 11673.4 414.613 6
 -4 -2 -1 11631.3 411.526 2
 4 -2 1 11628.6 405.894 1
 -4 -2 -1 11567.2 413.872 4
 -4 -2 -1 10706.8 393.37 3
 -4 -2 -2 1650.48 94.7899 5
 -4 -2 -2 1688.72 93.0899 8
 -4 -2 -2 1702.26 96.435 4
 -4 -2 -2 1632.79 95.0522 6
 4 -2 2 1717.24 89.4344 1
 -4 -2 -2 1615.37 93.1974 2
 -4 -2 -2 1836.94 97.9638 7
 -4 -2 -3 3600.1 160.477 5
 -4 -2 -3 3358.89 154.642 8
 -4 -2 -3 3255.84 157.341 4
 -4 -2 -3 3520.39 158.596 7
 4 -2 3 3374.26 149.465 1
 -4 -2 -3 3436.51 158.066 6
 -4 -2 -3 3519.36 158.041 2
 -4 -2 -4 4866.41 213.121 5
 -4 -2 -4 4792.76 209.402 8
 -4 -2 -4 5112.57 216.056 4
 -4 -2 -4 4720.22 211.009 7
 4 -2 4 5097.27 205.512 1
 -4 -2 -4 5285.33 216.799 6
 -4 -2 -4 5187.89 214.527 2
 -4 -2 -5 1729.66 108.393 5
 -4 -2 -5 1915.47 107.272 8
 -4 -2 -5 1780.01 109.099 4
 -4 -2 -5 1791.35 108.906 7
 4 -2 5 1808.44 100.167 1
 -4 -2 -5 1778.46 108.544 6
 -4 -2 -5 1803.54 108.497 2
 -4 -2 -6 1172.57 91.9236 5
 4 -2 6 1349.31 86.1559 1
 -4 -2 -6 1445.81 93.4066 8
 -4 -2 -6 1317.01 95.6926 4
 -4 -2 -6 1143.05 87.491 7
 -4 -2 -6 1092.48 85.8177 6
 -4 -2 -6 1339.9 92.1759 2
 -4 -2 -7 275.302 48.7354 2
 -4 -2 -7 289.454 50.1483 7
 -4 -2 -7 342.095 56.6205 5
 -4 -2 -7 224.987 43.1599 8
 -4 -2 -7 299.365 53.0413 4
 -4 -2 -7 256.939 50.1822 6
 -4 -2 -8 185.859 45.6322 2
 -4 -2 -8 150.064 45.1689 5
 -4 -2 -8 179.79 39.3704 8
 -4 -2 -8 95.0529 39.0212 4
 -4 -2 -8 149.077 42.6577 7
 -4 -2 -8 149.618 42.8106 6
 -4 -2 -9 103.856 46.085 2
 -4 -2 -9 77.0662 41.4255 5
 -4 -2 -9 147.049 40.7097 8
 -4 -2 -9 128.818 46.8257 4
 -4 -2 -9 112.106 42.6396 7
 -4 -2 -9 160.809 44.8862 6
 -4 -2 -10 162.027 50.8332 2
 -4 -2 -10 230.661 54.4078 5
 -4 -2 -10 111.124 46.7461 7
 -4 -2 -10 166.56 46.8484 4
 -4 -2 -10 171.686 49.1001 6
 -4 -2 -11 434.181 69.5593 5
 -4 -2 -11 573.998 76.3496 4
 4 -1 -14 331.926 64.9892 5
 -4 -1 14 325.612 67.5474 1
 4 -1 -14 377.017 68.3592 4
 4 -1 -14 306.311 63.4517 8
 4 -1 -13 124.973 42.6591 5
 4 -1 -13 206.145 49.9621 8
 -4 -1 13 211.629 57.4526 1
 4 -1 -13 142.085 44.3571 4
 4 -1 -12 495.71 67.4648 5
 4 -1 -12 454.509 67.3009 8
 -4 -1 12 492.948 68.1967 1
 4 -1 -12 469.211 65.4365 4
 4 -1 -11 128.859 42.9984 5
 -4 -1 11 202.695 46.5574 1
 4 -1 -11 188.657 43.8055 3
 4 -1 -11 173.714 45.5685 4
 4 -1 -11 186.335 45.4034 8
 -4 -1 10 216.843 45.4045 3
 4 -1 -10 275.393 48.554 5
 4 -1 -10 231.258 48.6462 8
 -4 -1 10 255.108 48.8686 1
 4 -1 -10 220.074 45.6779 3
 4 -1 -10 240.084 46.9928 4
 4 -1 -9 1214.87 87.8131 5
 4 -1 -9 1132.1 87.8298 3
 -4 -1 9 1257.16 90.2548 1
 4 -1 -9 1229.66 86.9769 4
 -4 -1 9 1179.22 87.378 3
 4 -1 -9 1064.92 89.0917 8
 4 -1 -8 2949.89 149.567 5
 4 -1 -8 3087.5 156.241 3
 -4 -1 8 3398.73 156.674 1
 4 -1 -8 2959.07 154.164 8
 4 -1 -8 3217.97 153.543 4
 -4 -1 8 3161.15 154.09 3
 4 -1 -7 2036.28 104.091 5
 4 -1 -7 1785.41 104.491 3
 -4 -1 7 1776.54 100.596 1
 4 -1 -7 1618.29 97.4617 4
 4 -1 -7 1695.77 104.613 8
 -4 -1 7 1741.98 101.977 3
 4 -1 -6 743.565 57.091 5
 -4 -1 6 671.961 57.6244 3
 4 -1 -6 676.868 59.1031 8
 -4 -1 6 627.336 54.3252 1
 4 -1 -6 750.153 57.2347 4
 4 -1 -5 3570.87 147.156 5
 -4 -1 5 3533.52 145.591 1
 4 -1 -5 3370.69 150.68 8
 4 -1 -5 3278.59 136.442 7
 4 -1 -5 3412.25 145.65 4
 4 -1 -5 2964.85 134.038 6
 -4 -1 5 3604.6 153.753 3
 4 -1 -4 2865.64 127.847 5
 -4 -1 4 2938.35 125.519 1
 4 -1 -4 2904.04 121.963 7
 4 -1 -4 2797.86 128.102 4
 4 -1 -4 3179.46 134.618 8
 4 -1 -4 2768.33 121.036 6
 -4 -1 4 3266.1 137.425 3
 4 -1 -3 13259.5 456.969 5
 -4 -1 3 12733.6 450.937 1
 4 -1 -3 13434.8 448.209 7
 4 -1 -3 12988.1 452.663 7
 4 -1 -3 13356.3 461.718 8
 4 -1 -3 12958.1 456.204 4
 4 -1 -3 13186.4 447.957 6
 4 -1 -3 12615 451.572 6
 4 -1 -3 13547.3 446.802 2
 -4 -1 3 14253.8 464.96 3
 -4 -1 2 178.115 22.2354 1
 4 -1 -2 132.703 23.4516 5
 4 -1 -2 171.135 21.4332 7
 -4 -1 2 208.158 29.1657 3
 4 -1 -2 165.575 21.8096 6
 4 -1 -2 189.154 26.1412 4
 4 -1 -2 198.197 26.4353 7
 4 -1 -2 151.161 23.2243 6
 4 -1 -2 200.574 22.5518 2
 -4 -1 1 1835.77 80.0982 1
 -4 -1 1 1970.01 96.651 4
 -4 -1 1 2103.72 91.7139 3
 4 -1 -1 1943.57 90.1482 1
 -4 -1 1 1957.04 96.0007 5
 4 -1 0 2689.56 113.277 3
 4 -1 0 2999.96 114.878 8
 -4 -1 0 2738.25 125.269 4
 -4 -1 0 2734.66 125.629 7
 -4 -1 0 2951.6 128.074 6
 -4 -1 0 2861.31 126.453 2
 4 -1 0 2580.47 115.991 1
 -4 -1 0 2859.98 115.951 3
 -4 -1 0 2757.24 124.811 5
 -4 -1 -1 2776.71 126.006 5
 4 -1 1 2673.94 107.112 3
 -4 -1 -1 2810.01 126.984 4
 -4 -1 -1 2806.4 127.221 7
 -4 -1 -1 2786.52 127.595 6
 4 -1 1 2464.02 113.914 1
 -4 -1 -1 2975.88 128.118 2
 -4 -1 -1 2749.48 110.676 3
 -4 -1 -2 11919.1 414.415 5
 -4 -1 -2 11197.9 407.694 8
 -4 -1 -2 11594.8 414.829 7
 -4 -1 -2 12083 415.747 4
 -4 -1 -2 11741.1 416.055 6
 4 -1 2 10741.5 398.251 1
 -4 -1 -2 11539 412.696 2
 -4 -1 -3 862.126 65.6752 5
 -4 -1 -3 927.189 63.7365 8
 -4 -1 -3 983.064 68.0546 7
 -4 -1 -3 780.906 64.4866 4
 4 -1 3 862.632 56.5973 1
 -4 -1 -3 911.655 66.2336 6
 -4 -1 -3 945.449 67.0278 2
 -4 -1 -4 246.627 42.8525 2
 -4 -1 -4 277.426 41.3775 5
 -4 -1 -4 202.458 35.3645 8
 4 -1 4 323.29 36.1481 1
 -4 -1 -4 280.052 42.4514 7
 -4 -1 -4 273.498 40.8596 4
 -4 -1 -4 303.131 42.714 6
 -4 -1 -5 665.065 64.4824 2
 -4 -1 -5 672.884 62.9904 5
 -4 -1 -5 571.922 54.9591 8
 -4 -1 -5 563.133 61.1284 7
 -4 -1 -5 722.007 65.2445 4
 -4 -1 -5 698.483 65.9512 6
 -4 -1 -6 635.13 65.2165 2
 -4 -1 -6 575.933 63.2091 5
 -4 -1 -6 615.808 59.6317 8
 -4 -1 -6 616.211 64.7415 4
 -4 -1 -6 547.069 63.0945 6
 -4 -1 -6 617.681 64.9341 7
 -4 -1 -7 804.145 74.6319 2
 -4 -1 -7 827.173 77.3931 5
 -4 -1 -7 922.621 74.2914 8
 -4 -1 -7 855.766 77.1062 7
 -4 -1 -7 829.505 76.9098 4
 -4 -1 -7 867.407 78.4548 6
 -4 -1 -8 445.215 61.57 2
 -4 -1 -8 559.238 69.9308 5
 -4 -1 -8 435.152 55.958 8
 -4 -1 -8 536.46 65.435 7
 -4 -1 -8 407.601 62.3468 4
 -4 -1 -8 489.824 61.8151 6
 -4 -1 -9 16.2941 35.4957 2
 -4 -1 -9 -33.366 35.6635 5
 -4 -1 -9 16.3151 32.0824 7
 -4 -1 -9 -8.374 34.3979 4
 -4 -1 -9 -8.13267 32.7033 6
 -4 -1 -10 113.55 45.7806 2
 -4 -1 -10 36.0814 38.6174 5
 -4 -1 -10 139.852 45.8127 7
 -4 -1 -10 72.4442 44.3186 4
 -4 -1 -10 8.72003 33.5653 6
 -4 -1 -11 120.761 49.4301 2
 -4 -1 -11 106.46 53.983 5
 -4 -1 -11 111.513 47.5709 7
 -4 -1 -11 97.1597 46.9766 4
 -4 -1 -11 222.591 54.5887 6
 -4 -1 -12 263.385 59.2963 2
 -4 -1 -12 136.768 51.5162 6
 4 0 -14 224.486 57.2622 5
 4 0 -14 262.31 58.1553 8
 -4 0 14 335.201 67.1258 1
 4 0 -14 203.799 58.661 4
 4 0 -13 119.225 44.8666 5
 -4 0 13 64.5872 41.6918 1
 4 0 -13 9.19137 35.3522 8
 4 0 -13 36.5461 35.1417 4
 4 0 -12 544.252 70.267 5
 4 0 -12 550.398 73.1745 8
 -4 0 12 573.182 70.662 1
 4 0 -12 542.317 68.9431 4
 4 0 -11 391.447 58.4022 5
 4 0 -11 191.888 49.7468 8
 -4 0 11 329.99 57.1048 1
 4 0 -11 308.192 54.9373 3
 4 0 -11 327.547 57.07 4
 -4 0 10 118.47 38.1469 3
 4 0 -10 156.885 39.5112 5
 -4 0 10 136.113 41.4678 1
 4 0 -10 103.362 37.9697 8
 4 0 -10 196.645 43.2016 3
 4 0 -10 234.384 44.0335 4
 4 0 -9 1013.21 80.848 5
 -4 0 9 1154.77 86.6678 1
 4 0 -9 910.426 78.4924 4
 -4 0 9 993.692 79.2672 3
 4 0 -9 1064.35 84.28 8
 4 0 -8 3139.41 152.609 5
 -4 0 8 2956.74 149.933 1
 4 0 -8 3210.78 156.102 8
 4 0 -8 2705.38 145.91 4
 -4 0 8 3234.99 153.049 3
 -4 0 7 37.1954 29.2931 3
 4 0 -7 89.6683 30.1637 8
 -4 0 7 67.4159 26.8885 1
 4 0 -7 67.5045 25.8416 7
 4 0 -7 89.1187 28.5656 4
 4 0 -7 80.5153 26.4368 6
 4 0 -7 36.5789 27.4451 5
 4 0 -6 1704.42 95.4285 5
 -4 0 6 1805.79 96.7749 1
 4 0 -6 1737.87 90.4608 7
 4 0 -6 1872.94 98.7751 4
 4 0 -6 1685.94 98.0487 8
 4 0 -6 1730.07 89.7161 6
 -4 0 6 1530.52 93.9713 3
 4 0 -5 1463.14 82.8741 5
 -4 0 5 1348.25 80.248 1
 4 0 -5 1380.39 84.1131 8
 4 0 -5 1537.55 79.549 7
 4 0 -5 1706.84 87.117 4
 4 0 -5 1391.21 77.3964 6
 -4 0 5 1461.84 84.3924 3
 4 0 -4 26059.4 834.592 5
 -4 0 4 25062.1 829.016 1
 4 0 -4 27025.7 839.394 8
 4 0 -4 24185.7 826.068 7
 4 0 -4 25577.5 833.999 4
 4 0 -4 23474.1 825.231 6
 -4 0 4 22628.6 830.593 3
 -4 0 3 477.373 38.1255 1
 -4 0 3 481.011 42.7984 3
 4 0 -3 357.928 38.4338 5
 4 0 -3 442.199 40.5452 8
 4 0 -3 448.999 40.1455 7
 4 0 -3 421.664 40.9433 4
 4 0 -3 362.492 36.0919 6
 4 0 -2 1403.7 75.7053 5
 -4 0 2 1329.14 69.3341 1
 4 0 -2 1474.8 67.7256 1
 4 0 -2 1444.84 76.0879 7
 4 0 -2 1367.18 75.4379 4
 4 0 -2 1384.97 74.841 6
 -4 0 2 1523.38 75.3284 3
 -4 0 1 824.212 48.7614 1
 4 0 -1 912.956 47.9077 1
 -4 0 1 801.756 53.4564 4
 -4 0 1 977.004 58.365 7
 -4 0 1 800.246 54.5481 6
 -4 0 1 961.907 56.394 2
 -4 0 1 872.548 52.3443 3
 4 0 -1 870.816 48.8434 3
 -4 0 1 897.002 56.093 5
 -4 0 0 1991.93 96.1286 5
 -4 0 0 2097.63 98.0091 4
 -4 0 0 1974.49 97.6732 7
 -4 0 0 2046.11 98.5763 6
 -4 0 0 1939.2 97.2038 2
 4 0 0 2012.74 86.4422 1
 -4 0 0 1909.37 86.5302 3
 4 0 0 2080.84 85.2029 3
 -4 0 -1 10686.8 370.781 5
 -4 0 -1 11165.8 375.013 7
 -4 0 -1 10903 374.777 6
 4 0 1 9849.19 354.377 1
 -4 0 -1 10429.5 372.282 2
 -4 0 -1 10849.4 372.143 4
 -4 0 -1 9752.66 351.475 3
 -4 0 -2 6185.77 245.158 5
 -4 0 -2 6410.3 241.831 8
 -4 0 -2 6765.55 251.458 7
 -4 0 -2 6449.67 247.048 4
 -4 0 -2 6722.28 252.101 6
 4 0 2 6146.05 230.49 1
 -4 0 -2 6720.71 250.54 2
 -4 0 -3 32.8431 24.582 2
 -4 0 -3 31.0514 22.6395 5
 -4 0 -3 25.8856 18.0988 8
 -4 0 -3 28.3037 20.5693 7
 -4 0 -3 22.2851 20.8239 4
 -4 0 -3 18.9016 20.6046 6
 -4 0 -4 1587.97 92.4508 5
 -4 0 -4 1643.17 86.6842 8
 -4 0 -4 1658.55 94.2807 4
 -4 0 -4 1412.72 91.6122 7
 -4 0 -4 1491.19 93.039 6
 -4 0 -4 1404.81 92.3948 2
 -4 0 -5 3306.27 157.027 5
 -4 0 -5 3137.19 146.409 8
 -4 0 -5 3404.79 159.402 4
 -4 0 -5 3535.29 162.634 7
 -4 0 -5 3225.31 157.808 6
 -4 0 -5 3119.13 156.716 2
 -4 0 -6 7111.01 285.13 5
 -4 0 -6 6653.49 281.782 4
 -4 0 -6 7120.63 288.709 7
 -4 0 -6 7087.49 287.894 6
 -4 0 -6 6819.95 286.34 2
 -4 0 -7 21.093 29.4941 2
 -4 0 -7 13.5148 32.0673 5
 -4 0 -7 56.3624 34.4602 7
 -4 0 -7 47.4637 30.101 4
 -4 0 -7 27.9799 31.601 6
 -4 0 -8 122.651 46.1967 2
 -4 0 -8 208.11 48.1518 5
 -4 0 -8 191.918 48.02 7
 -4 0 -8 149.161 44.0831 4
 -4 0 -8 152.464 45.9439 6
 -4 0 -9 572.847 74.7027 2
 -4 0 -9 552.555 70.3194 5
 -4 0 -9 673.36 77.3491 7
 -4 0 -9 717.533 77.1864 4
 -4 0 -9 619.234 75.9159 6
 -4 0 -10 187.422 54.8129 2
 -4 0 -10 281.955 56.1033 5
 -4 0 -10 178.68 51.7091 7
 -4 0 -10 123.781 46.0966 4
 -4 0 -10 204.153 49.1759 6
 -4 0 -11 47.5937 43.7552 2
 -4 0 -11 66.358 47.0614 5
 -4 0 -11 -19.0549 44.5177 7
 -4 0 -11 142.688 48.5523 4
 -4 0 -11 94.6127 47.6351 6
 -4 0 -12 10.0428 45.3466 2
 -4 0 -12 10.0533 42.147 7
 -4 0 -12 -9.99367 44.3398 6
 4 1 -14 240.439 63.4225 5
 -4 1 14 307.444 64.4268 1
 4 1 -14 279.378 64.8113 4
 4 1 -14 238.76 55.5414 8
 4 1 -13 46.9663 44.0034 5
 -4 1 13 92.7454 39.8201 1
 4 1 -13 144.398 49.1763 8
 4 1 -13 215.23 52.7609 4
 4 1 -12 594.244 73.3208 5
 4 1 -12 516.541 70.4767 8
 -4 1 12 604.051 75.6395 1
 4 1 -12 565.912 70.0864 4
 4 1 -11 177.215 48.6924 5
 -4 1 11 206.994 50.8367 1
 4 1 -11 240.736 51.2335 4
 4 1 -11 213.539 48.7351 8
 4 1 -10 338.718 52.5475 5
 4 1 -10 300.529 48.1824 8
 -4 1 10 284.574 49.8854 1
 4 1 -10 286.84 52.125 4
 4 1 -9 1203.09 91.0202 5
 -4 1 9 1106.12 88.9803 1
 4 1 -9 1215.4 91.719 8
 4 1 -9 1106.1 81.4585 7
 4 1 -9 1320.11 94.6116 4
 4 1 -9 1185.47 82.5846 6
 4 1 -8 3368.9 161.89 5
 -4 1 8 3114.61 157.948 1
 4 1 -8 3403.41 163.156 8
 4 1 -8 3294.3 153.99 7
 4 1 -8 3131.33 158.908 4
 4 1 -8 3170.45 152.94 6
 4 1 -7 1814.38 106.14 8
 4 1 -7 1925.14 108.251 5
 -4 1 7 1847.16 104.72 1
 4 1 -7 1709.52 99.1045 7
 4 1 -7 1775.68 104.224 4
 4 1 -7 1809.08 100.221 6
 -4 1 7 1651.54 101.779 3
 -4 1 6 651.487 55.3593 3
 4 1 -6 458.385 49.1085 5
 4 1 -6 593.519 51.4964 7
 4 1 -6 595.385 54.1781 8
 -4 1 6 606.243 53.5934 1
 4 1 -6 569.142 53.461 4
 4 1 -6 568.433 52.2819 6
 4 1 -5 3611.32 159.068 5
 -4 1 5 3489 157.053 1
 4 1 -5 3741.8 156.757 7
 4 1 -5 3602.09 159.259 4
 4 1 -5 3510.17 154.26 6
 4 1 -5 3538.99 160.367 8
 -4 1 5 3700.46 159.834 3
 4 1 -4 3180.93 142.648 5
 -4 1 4 3063.91 138.499 1
 4 1 -4 3172.86 139.634 7
 4 1 -4 3215.44 142.747 4
 4 1 -4 3156.57 139.687 6
 4 1 -4 3461.04 146.508 8
 -4 1 4 3052.26 140.125 3
 4 1 -3 14134.2 485.11 5
 -4 1 3 13561.6 478.49 1
 4 1 -3 13172.7 464.478 1
 4 1 -3 13683.6 481.868 7
 4 1 -3 14919 487.683 4
 4 1 -3 14069.4 482.563 6
 -4 1 3 13700.5 479.604 3
 -4 1 2 187.867 26.028 1
 -4 1 2 219.513 28.6328 3
 4 1 -2 181.848 31.6888 5
 4 1 -2 175.845 30.3226 7
 4 1 -2 167.028 31.3052 4
 4 1 -2 188.826 30.4682 6
 -4 1 1 1808.44 89.2202 1
 -4 1 1 2001.22 90.626 4
 -4 1 1 1988.21 91.1599 7
 4 1 -1 2046.48 99.5251 7
 -4 1 1 1815.03 89.9424 6
 -4 1 1 1959.55 89.5146 2
 4 1 -1 2009.4 98.4769 6
 -4 1 1 1905.67 88.0333 3
 -4 1 1 2004.65 90.5706 5
 4 1 0 2787.79 110.252 3
 -4 1 0 2688.1 118.859 7
 -4 1 0 2596.17 116.139 4
 -4 1 0 2727.57 119.56 6
 -4 1 0 2857.92 119.377 2
 -4 1 0 2651.73 116.134 5
 -4 1 -1 2717.08 120.708 5
 -4 1 -1 2811.91 121.861 4
 -4 1 -1 2940.52 126.508 7
 -4 1 -1 2835.53 125.866 6
 -4 1 -1 2697.23 124.643 2
 -4 1 -2 11509.2 418.989 5
 -4 1 -2 11788.6 420.237 4
 -4 1 -2 12136.6 426.264 7
 -4 1 -2 12077.7 426.26 6
 -4 1 -2 12239 426.499 2
 -4 1 -3 869.966 60.7651 5
 -4 1 -3 833.956 52.7719 8
 -4 1 -3 977.987 63.6259 4
 -4 1 -3 928.567 65.7541 7
 -4 1 -3 764.02 61.5465 6
 -4 1 -3 755.045 61.6929 2
 -4 1 -4 319.675 43.0153 2
 -4 1 -4 332.328 41.1724 5
 -4 1 -4 257.773 40.6177 7
 -4 1 -4 328.578 40.9061 4
 -4 1 -4 276.477 41.6963 6
 -4 1 -5 671.992 62.6455 2
 -4 1 -5 736.502 63.7743 4
 -4 1 -5 666.376 61.6186 5
 -4 1 -5 626.042 61.1616 7
 -4 1 -5 692.182 62.2019 6
 -4 1 -6 697.735 63.9783 5
 -4 1 -6 542.5 63.3032 7
 -4 1 -6 647.105 61.4601 4
 -4 1 -6 527.896 62.6569 6
 -4 1 -7 809.94 76.7895 7
 -4 1 -7 939.996 79.9626 5
 -4 1 -7 910.107 79.4184 4
 -4 1 -7 942.142 80.6333 6
 -4 1 -8 417.941 58.7655 5
 -4 1 -8 403.758 62.7242 7
 -4 1 -8 505.848 64.5713 4
 -4 1 -8 472.328 62.8955 6
 -4 1 -9 15.8026 31.7791 5
 -4 1 -9 25.2734 34.611 7
 -4 1 -9 31.6955 30.4534 4
 -4 1 -9 8.40334 30.7196 6
 -4 1 -10 51.5623 38.2501 5
 -4 1 -10 81.6124 45.7216 7
 -4 1 -10 129.276 43.4648 4
 -4 1 -10 144.753 50.9777 6
 -4 1 -11 176.08 52.279 5
 -4 1 -11 145.114 46.0601 7
 -4 1 -11 102.235 48.8304 4
 -4 1 -11 86.8818 45.9622 6
 -4 1 -12 276.82 58.7632 5
 -4 1 -12 307.365 64.5272 4
 4 2 -14 366.823 68.4733 5
 -4 2 14 440.198 70.84 1
 4 2 -14 395.762 67.6695 4
 4 2 -13 1428.77 115.155 5
 -4 2 13 1169.26 107.265 1
 4 2 -13 1413.97 114.228 4
 4 2 -13 1267.03 108.623 8
 4 2 -12 241.648 50.9274 5
 -4 2 12 176.312 55.849 1
 4 2 -12 267.29 52.9745 8
 4 2 -12 276.345 54.4477 4
 4 2 -11 2508.12 146.789 5
 -4 2 11 2077.3 137.3 1
 4 2 -11 2355.21 139.014 8
 4 2 -11 2118.76 132.446 7
 4 2 -11 2324.64 141.514 4
 4 2 -11 2143.75 133.188 6
 -4 2 10 708.477 75.733 1
 4 2 -10 760.799 76.65 5
 4 2 -10 640.151 69.572 7
 4 2 -10 616.493 71.1689 4
 4 2 -10 801.074 76.3909 8
 4 2 -10 718.817 70.6029 6
 4 2 -9 1349.91 99.0122 5
 -4 2 9 1284.07 97.8871 1
 4 2 -9 1323.09 96.4145 8
 4 2 -9 1333.62 94.3 7
 4 2 -9 1522.91 102.71 4
 4 2 -9 1460.6 97.6 6
 4 2 -8 2223.94 125.44 5
 -4 2 8 2153.92 124.367 1
 4 2 -8 2009.04 120.949 8
 4 2 -8 2190.57 121.954 7
 4 2 -8 2205.24 125.135 4
 4 2 -8 2338.52 125.083 6
 -4 2 7 23.1448 28.2968 1
 4 2 -7 21.7347 24.1168 7
 4 2 -7 40.7501 26.7429 4
 4 2 -7 5.74587 25.9525 8
 4 2 -7 34.8388 29.6215 5
 4 2 -7 10.916 24.2246 6
 -4 2 6 520.747 52.1049 1
 4 2 -6 561.938 54.1416 5
 4 2 -6 537.227 54.8536 8
 4 2 -6 486.374 49.7338 7
 4 2 -6 451.884 51.4624 4
 4 2 -6 507.613 51.416 6
 -4 2 5 675.479 58.1829 1
 4 2 -5 670.964 56.9839 8
 4 2 -5 705.623 56.6617 7
 4 2 -5 524.037 53.8081 5
 4 2 -5 623.891 57.1559 4
 4 2 -5 652.384 55.3594 6
 4 2 -4 1408.7 83.4218 5
 -4 2 4 1264.55 79.0254 1
 4 2 -4 1384.29 82.0094 7
 4 2 -4 1319.53 81.3998 8
 4 2 -4 1274.91 80.221 4
 4 2 -4 1407.18 82.6508 6
 -4 2 3 5655.78 228.643 1
 4 2 -3 5981.98 235.306 5
 4 2 -3 6044.73 234.391 7
 4 2 -3 5926.43 233.445 6
 4 2 -3 5981.9 235.566 4
 -4 2 2 2606.14 127.02 1
 4 2 -2 3028.63 135.778 5
 4 2 -2 3116.43 136.714 7
 4 2 -2 3130.1 136.668 4
 -4 2 2 2772.54 115.814 2
 4 2 -2 3124.78 136.718 6
 -4 2 1 405.443 34.018 7
 -4 2 1 398.706 32.6302 4
 -4 2 1 354.817 32.1296 6
 4 2 -1 405.531 42.9882 7
 -4 2 1 376.086 32.8496 2
 4 2 -1 424.992 42.9988 6
 -4 2 1 430.178 33.3107 5
 -4 2 0 580.307 39.9653 4
 -4 2 0 576.895 42.5926 7
 4 2 0 573.501 51.7412 7
 -4 2 0 514.224 42.0176 6
 -4 2 0 558.768 42.634 2
 4 2 0 528.613 51.3138 6
 -4 2 0 531.431 38.7482 5
 -4 2 -1 11428.1 402.692 5
 -4 2 -1 11981.3 404.518 4
 -4 2 -1 11559.5 409.786 7
 -4 2 -1 11482.4 409.618 6
 -4 2 -1 11660 409.697 2
 -4 2 -2 1799.09 87.8553 5
 -4 2 -2 1623.34 85.6553 4
 -4 2 -2 1719.83 92.5304 7
 -4 2 -2 1828.85 93.7079 6
 -4 2 -2 1796.15 94.6 2
 -4 2 -3 3477.06 150.142 5
 -4 2 -3 3448.31 149.913 4
 -4 2 -3 3782.68 160.958 7
 -4 2 -3 3430.55 157.22 6
 -4 2 -3 3523.1 158.292 2
 -4 2 -4 5168.36 210.38 5
 -4 2 -4 5120.47 210.238 4
 -4 2 -4 5220.85 218.938 7
 -4 2 -4 5271.82 218.977 6
 -4 2 -5 1734.87 98.7053 5
 -4 2 -5 1605.95 96.1542 4
 -4 2 -5 1724.6 104.803 7
 -4 2 -5 1757.51 105.392 6
 -4 2 -6 1197.58 82.3228 5
 -4 2 -6 1083.3 79.3773 4
 -4 2 -6 1115.55 85.579 7
 -4 2 -6 1143.28 85.68 6
 -4 2 -7 320.799 48.0082 5
 -4 2 -7 258.875 51.581 7
 -4 2 -7 309.061 48.9988 4
 -4 2 -7 223.312 49.5056 6
 -4 2 -8 230.087 48.0858 5
 -4 2 -8 94.4259 43.5226 7
 -4 2 -8 160.712 40.0172 4
 -4 2 -8 118.209 45.0646 6
 -4 2 -9 84.3817 34.1336 5
 -4 2 -9 59.8109 37.9984 7
 -4 2 -9 123.006 41.3565 4
 -4 2 -9 59.9124 41.9257 6
 -4 2 -10 200.625 47.3949 5
 -4 2 -10 174.822 54.3324 7
 -4 2 -10 167.557 43.7109 4
 -4 2 -10 212.03 56.057 6
 -4 2 -11 478.413 69.9367 5
 -4 2 -11 433.05 72.8108 7
 -4 2 -11 379.837 66.7004 4
 -4 2 -11 462.732 74.6822 6
 -4 2 -12 337.667 65.0555 5
 -4 2 -12 319.17 63.6839 4
 4 3 -13 136.727 49.5843 5
 -4 3 13 211.09 54.3802 1
 4 3 -12 146.204 52.7884 5
 -4 3 12 108.19 43.7427 1
 4 3 -12 227.93 47.2448 7
 4 3 -12 145.632 48.5526 4
 4 3 -12 203.13 49.4467 6
 4 3 -11 254.457 54.7756 5
 -4 3 11 362.043 60.8688 1
 4 3 -11 269.842 55.08 7
 4 3 -11 262.157 54.154 4
 4 3 -11 223.507 51.6239 6
 4 3 -11 201.49 49.7339 8
 4 3 -10 1843.1 123.681 5
 -4 3 10 1982.06 128.371 1
 4 3 -10 2050.15 126.642 7
 4 3 -10 1773.14 122.307 4
 4 3 -10 1821.09 122.399 6
 4 3 -10 1931.81 123.572 8
 -4 3 9 261.197 49.4402 1
 4 3 -9 188.312 40.7608 5
 4 3 -9 196.029 40.1594 8
 4 3 -9 214.743 47.9483 7
 4 3 -9 138.182 40.0064 4
 4 3 -9 201.791 44.1017 6
 -4 3 8 314.64 49.4831 1
 4 3 -8 299.367 50.4378 5
 4 3 -8 251.604 44.5052 8
 4 3 -8 420.969 51.7932 7
 4 3 -8 320.134 51.1745 4
 4 3 -8 475.327 53.7503 6
 4 3 -7 2968.09 148.138 5
 -4 3 7 2998.44 149.185 1
 4 3 -7 2756.4 143.816 7
 4 3 -7 2662.22 143.37 4
 4 3 -7 2731.1 142.473 8
 4 3 -7 2840.76 145.7 6
 4 3 -6 4859.92 206.881 5
 -4 3 6 4453.87 202.527 1
 4 3 -6 4608.77 202.277 8
 4 3 -6 4810.86 205.915 7
 4 3 -6 4535.55 203.795 4
 4 3 -6 4755.72 205.303 6
 4 3 -5 4711.57 203.448 5
 -4 3 5 4988.42 206.753 1
 4 3 -5 4961.43 205.831 7
 4 3 -5 4725.84 204.289 4
 4 3 -5 4703.84 204.288 6
 4 3 -5 4583.84 201.999 8
 -4 3 4 665.587 57.5728 1
 4 3 -4 821.693 63.0204 5
 4 3 -4 790.13 61.9305 7
 4 3 -4 617.588 57.3782 4
 4 3 -4 708.057 58.9363 6
 -4 3 3 4417.34 190.725 1
 4 3 -3 4810.32 195.639 5
 4 3 -3 4433.45 192.559 7
 4 3 -3 4583.93 194.79 4
 4 3 -3 4595.69 194.331 6
 -4 3 2 3252.59 150.271 1
 4 3 -2 3436.1 154.49 5
 4 3 -2 3422.41 155.724 7
 4 3 -2 3440.1 155.134 4
 4 3 -2 3609.75 157.408 6
 4 3 -1 328.33 44.3083 7
 4 3 -1 394.981 45.3884 6
 -4 3 0 6002.21 224.72 7
 4 3 0 6456.01 245.804 7
 -4 3 0 6055.89 225.017 6
 4 3 0 6579.19 245.897 6
 -4 3 0 5605.78 222.765 2
 -4 3 -1 81.1248 24.9026 2
 -4 3 -1 78.2446 22.6889 7
 4 3 1 79.3419 28.9433 7
 -4 3 -1 98.6361 25.0464 6
 4 3 1 107.106 28.4205 6
 -4 3 -2 3934.03 166.507 7
 -4 3 -2 4004.05 166.668 6
 -4 3 -2 3810.94 165.607 2
 -4 3 -3 3892.95 170.395 7
 -4 3 -3 3872.25 169.797 6
 -4 3 -4 7566.18 291.515 7
 -4 3 -4 7170.61 288.504 6
 -4 3 -5 3342.26 165.834 7
 -4 3 -5 3587.58 169.227 6
 -4 3 -6 1135.61 88.3805 7
 -4 3 -6 1290.71 93.6366 6
 -4 3 -7 1526.28 110.176 7
 -4 3 -7 1736.34 115.463 6
 -4 3 -8 128.233 45.9245 7
 -4 3 -8 241.137 52.9385 6
 -4 3 -9 208.833 53.4212 7
 -4 3 -9 157.014 46.0318 6
 -4 3 -10 1826.5 132.899 7
 -4 3 -10 2038.08 137.985 6
 -4 3 -11 360.472 64.7598 7
 -4 3 -11 491.446 75.4461 6
 -4 4 13 312.282 61.7484 1
 4 4 -13 336.546 65.2947 5
 4 4 -13 401.989 67.1555 7
 4 4 -13 374.685 66.0923 4
 4 4 -13 374.168 69.6734 6
 -4 4 12 461.861 71.073 1
 4 4 -12 474.602 68.0944 5
 4 4 -12 388.266 63.5041 7
 4 4 -12 398.508 66.4772 4
 4 4 -12 461.824 68.896 6
 -4 4 11 104.241 41.9241 1
 4 4 -11 78.0812 41.8709 5
 4 4 -11 112.444 44.1933 4
 4 4 -11 119.582 46.4889 7
 4 4 -11 25.735 36.7703 6
 -4 4 10 203.601 48.0806 1
 4 4 -10 161.611 42.0868 5
 4 4 -10 144.515 40.162 7
 4 4 -10 129.52 41.0536 4
 4 4 -10 193.544 47.6156 6
 -4 4 9 106.446 38.4639 1
 4 4 -9 104.827 35.7441 5
 4 4 -9 176.645 40.4836 8
 4 4 -9 105.369 41.0972 7
 4 4 -9 112.775 41.0536 4
 4 4 -9 166.32 43.1819 6
 4 4 -8 127.511 35.6728 8
 -4 4 8 113.504 36.3899 1
 4 4 -8 131.515 37.3656 5
 4 4 -8 113.27 37.7431 7
 4 4 -8 124.905 37.0036 4
 4 4 -8 120.984 37.9399 6
 -4 4 7 105.713 36.2237 1
 4 4 -7 253.102 43.4391 8
 4 4 -7 132.593 45.0744 7
 4 4 -7 153.892 37.5589 4
 4 4 -7 140.774 37.4821 5
 4 4 -7 139.816 44.5705 6
 -4 4 6 265.286 49.0181 1
 4 4 -6 385.928 49.5773 5
 4 4 -6 440.681 52.0319 8
 4 4 -6 322.165 46.6814 7
 4 4 -6 357.27 49.9631 4
 4 4 -6 372.943 50.1847 6
 4 4 -5 3586.99 166.555 5
 -4 4 5 3314.4 165.136 1
 4 4 -5 3641.04 169.457 7
 4 4 -5 3593.86 169.546 6
 4 4 -5 3681.64 168.528 4
 4 4 -5 3444.7 163.107 8
 -4 4 4 2669 134.803 1
 4 4 -4 2578.47 131.844 5
 4 4 -4 2599.2 132.941 7
 4 4 -4 2653.54 133.591 4
 4 4 -4 2521.03 132.782 6
 4 4 -3 62.227 26.6236 5
 4 4 -3 95.6863 29.3874 7
 4 4 -3 67.8214 29.8251 4
 4 4 -3 96.3155 27.8252 6
 -4 4 3 176.744 32.1749 1
 4 4 -2 1485.94 91.1317 5
 4 4 -2 1535.62 93.6663 7
 4 4 -2 1483.13 91.5489 4
 4 4 -2 1650.94 96.1094 6
 4 4 -1 3684.28 167.028 7
 4 4 -1 3602.2 166.491 6
 4 4 0 514.165 52.631 7
 4 4 0 486.455 50.1359 6
 4 4 1 2221.16 116.456 7
 4 4 1 1913.33 110.47 6
 -4 4 -2 934.346 64.8924 7
 4 4 2 952.55 75.8372 7
 -4 4 -2 1166.57 69.8018 6
 4 4 2 902.422 72.583 6
 -4 4 -3 691.889 57.8657 7
 -4 4 -3 663.264 56.466 6
 -4 4 -4 2608.62 133.07 7
 -4 4 -4 2602.86 132.995 6
 -4 4 -5 4004.02 186.769 7
 -4 4 -5 4097.86 188.229 6
 -4 4 -6 3103.69 164.74 7
 -4 4 -6 3465.58 170.239 6
 -4 4 -7 554.36 64.6689 7
 -4 4 -7 420.734 59.7501 6
 -4 4 -8 393.109 62.0516 7
 -4 4 -8 312.153 59.1055 6
 -4 4 -9 469.119 65.9152 7
 -4 4 -9 337.611 58.1153 6
 -4 4 -10 -9.51622 34.7813 7
 -4 4 -10 28.645 34.8987 6
 -4 5 13 178.365 53.3963 1
 4 5 -13 119.818 52.4821 5
 4 5 -13 121.341 53.1444 7
 4 5 -13 218.759 56.731 4
 4 5 -13 91.1965 51.1812 6
 -4 5 12 520.399 71.3345 1
 4 5 -12 471.568 71.9871 5
 4 5 -12 421.928 69.5263 7
 4 5 -12 319.387 63.4479 4
 4 5 -12 394.184 69.7007 6
 -4 5 11 619.197 77.9688 1
 4 5 -11 680.869 81.0811 5
 4 5 -11 629.327 80.2579 7
 4 5 -11 670.958 81.9693 4
 4 5 -11 604.97 79.5263 6
 -4 5 10 432.076 62.009 1
 4 5 -10 372.548 60.2561 5
 4 5 -10 381.563 60.3675 4
 4 5 -10 439.249 64.2253 7
 4 5 -10 372.077 60.2961 6
 -4 5 9 95.7332 39.633 1
 4 5 -9 77.1918 34.317 5
 4 5 -9 16.2334 38.5597 7
 4 5 -9 85.2569 39.5896 4
 4 5 -9 89.7032 46.4257 6
 -4 5 8 488.369 63.3287 1
 4 5 -8 459.497 60.3601 5
 4 5 -8 559.32 68.249 7
 4 5 -8 359.771 56.4385 4
 4 5 -8 392.675 61.859 6
 4 5 -7 3513.28 175.774 5
 -4 5 7 3600.48 180.092 1
 4 5 -7 3658.72 173.821 8
 4 5 -7 3341.41 178.423 7
 4 5 -7 3741.43 179.791 4
 4 5 -7 3623.21 182.329 6
 -4 5 6 614.148 68.3099 1
 4 5 -6 948.361 74.6882 5
 4 5 -6 685.126 67.212 8
 4 5 -6 944.836 75.7927 4
 4 5 -6 800.352 73.7823 7
 4 5 -6 775.807 73.5595 6
 -4 5 5 3506.32 167.511 1
 4 5 -5 3500.8 164.446 5
 4 5 -5 3337.47 160.804 8
 4 5 -5 2998.29 161.281 7
 4 5 -5 3103.51 159.509 4
 4 5 -5 3563.76 168.864 6
 -4 5 4 6925.07 290.842 1
 4 5 -4 7174.79 289.293 5
 4 5 -4 7166.66 292.484 7
 4 5 -4 7272.43 289.974 4
 4 5 -4 7646.06 296.51 6
 4 5 -3 5977.79 249.371 5
 4 5 -3 5769.33 250.326 7
 4 5 -3 6127.88 250.392 4
 4 5 -3 6440.86 255.884 6
 4 5 -2 2545.08 132.939 5
 4 5 -2 2904.51 141.362 7
 4 5 -2 2580.4 134.76 4
 4 5 -2 2582.4 136.387 6
 4 5 -1 398.25 47.8908 5
 4 5 -1 429.57 49.8927 7
 4 5 -1 464.581 49.9421 4
 4 5 -1 371.883 49.523 6
 4 5 0 657.737 61.1458 7
 4 5 0 522.64 56.8751 6
 4 5 1 5.72851 28.8282 7
 4 5 1 33.9044 23.7009 6
 4 5 2 1450.45 96.208 7
 4 5 2 1382.88 93.9358 6
 4 5 3 -12.0747 30.7927 7
 4 5 3 35.4967 28.9255 6
 -4 5 -4 1124.09 79.7098 7
 -4 5 -4 1069.57 78.1223 6
 -4 5 -5 375.497 52.1766 7
 -4 5 -5 350.901 50.6285 6
 -4 5 -6 621.545 67.5922 7
 -4 5 -6 608.89 67.4712 6
 -4 5 -7 23.0783 35.3395 7
 -4 5 -7 30.8399 36.0036 6
 -4 5 -8 686.363 75.0461 7
 -4 5 -8 729.663 78.0858 6
 -4 5 -9 1122.56 104.942 7
 -4 5 -9 1325.57 112.654 6
 -4 5 -10 164.991 54.9196 7
 -4 5 -10 213.659 56.7367 6
 -4 6 12 473.095 73.5926 1
 4 6 -12 465.891 72.945 5
 4 6 -12 333.772 68.5852 7
 4 6 -12 397.728 64.8679 4
 4 6 -12 405.266 73.2733 6
 -4 6 11 332.629 61.897 1
 4 6 -11 215.197 52.5656 5
 4 6 -11 193.087 57.1041 7
 4 6 -11 285.951 58.9446 4
 4 6 -11 126.125 51.2917 6
 -4 6 10 70.3817 39.809 1
 4 6 -10 67.5148 40.1128 5
 4 6 -10 64.236 45.594 7
 4 6 -10 93.0099 43.2026 4
 4 6 -10 119.767 47.0592 6
 4 6 -9 1416.06 110.564 5
 -4 6 9 1464.43 113.325 1
 4 6 -9 1413.85 110.537 4
 4 6 -9 1355.81 111.428 7
 4 6 -9 1465.96 114.17 6
 -4 6 8 452.761 66.1384 1
 4 6 -8 473.904 63.4565 5
 4 6 -8 436.986 65.2965 7
 4 6 -8 549.304 66.8694 4
 4 6 -8 579.901 72.9056 6
 -4 6 7 196.766 43.9667 1
 4 6 -7 241.354 50.1226 7
 4 6 -7 207.79 45.4341 5
 4 6 -7 152.701 39.5571 4
 4 6 -7 226.703 49.0263 6
 -4 6 6 1824.23 117.571 1
 4 6 -6 1685.35 108.742 5
 4 6 -6 1768.07 116.031 7
 4 6 -6 1500.21 104.022 4
 4 6 -6 1715.2 114.188 6
 -4 6 5 4050.39 194.566 1
 4 6 -5 4005.13 186.27 5
 4 6 -5 3940.97 185.268 8
 4 6 -5 3837.57 191.697 7
 4 6 -5 4169.86 188.098 4
 4 6 -5 4014.39 193.292 6
 4 6 -4 997.902 78.719 5
 4 6 -4 962.584 76.4896 4
 4 6 -4 971.739 80.0813 7
 4 6 -4 982.707 80.7685 6
 4 6 -3 3025.61 151.781 5
 4 6 -3 2917.58 154.508 7
 4 6 -3 3032.18 151.576 4
 4 6 -3 3266.58 159.321 6
 4 6 -2 3863.2 177.759 5
 4 6 -2 3841.72 180.23 7
 4 6 -2 3637.29 174.642 4
 4 6 -2 3908.85 181.267 6
 4 6 -1 2831.26 143.494 5
 4 6 -1 2963.58 148.933 7
 4 6 -1 2657.81 141.034 4
 4 6 -1 3149.99 152.022 6
 4 6 0 36.2748 27.3504 7
 4 6 0 72.3137 29.9397 6
 4 6 1 1622.63 102.159 7
 4 6 1 1475.43 97.8648 6
 4 6 2 821.331 73.4336 7
 4 6 2 743.571 69.8358 6
 -4 6 -7 149.407 45.8147 7
 -4 6 -7 78.7339 40.8463 6
 -4 6 -8 171.204 49.693 7
 -4 6 -8 274.526 55.2192 6
 -4 6 -9 9.20869 45.6816 7
 -4 6 -9 -27.6774 43.7614 6
 4 7 -11 91.3051 52.5535 7
 4 7 -11 132.599 58.111 6
 -4 7 10 337.112 65.7897 1
 4 7 -10 184.053 58.0215 7
 4 7 -10 272.389 60.504 6
 -4 7 9 1146.61 104.245 1
 4 7 -9 1115.32 104.616 7
 4 7 -9 1249.12 110.551 6
 -4 7 8 427.441 61.4684 1
 4 7 -8 464.758 67.4353 7
 4 7 -8 528.743 73.1761 6
 -4 7 7 322.125 54.2267 1
 4 7 -7 233.408 51.5496 7
 4 7 -7 226.216 51.8047 6
 -4 7 6 1316.08 102.378 1
 4 7 -6 1195.49 99.8177 7
 4 7 -6 1240.52 102.382 6
 4 7 -5 465.394 62.0519 7
 4 7 -5 519.802 65.3866 6
 4 7 -4 128.615 42.9592 7
 4 7 -4 114.664 39.1332 6
 4 7 -3 328.212 51.1172 7
 4 7 -3 343.433 51.6602 6
 4 7 -2 2773.53 151.863 7
 4 7 -2 3102.65 156.734 6
 4 7 -1 168.143 42.0824 7
 4 7 -1 208.222 41.6277 6
 4 7 0 2058.63 119.413 7
 4 7 0 1921.47 117.903 6
 4 8 -10 405.253 69.8197 7
 4 8 -10 447.676 73.6497 6
 4 8 -9 116.218 48.2268 7
 4 8 -9 145.804 44.0929 6
 4 8 -8 46.2157 41.8213 7
 4 8 -8 102.059 44.7694 6
 -4 8 8 123.222 46.7512 1
 4 8 -7 44.1775 41.3027 7
 4 8 -7 88.7682 40.8224 6
 4 8 -6 50.4646 37.9908 7
 4 8 -6 16.8995 35.439 6
 4 8 -5 392.95 59.165 7
 4 8 -5 386.663 58.2564 6
 4 8 -4 2087.07 133.35 7
 4 8 -4 2200.7 136.401 6
 4 8 -3 146.316 44.1326 7
 4 8 -3 190.901 45.5561 6
 4 9 -8 337.992 67.4872 7
 4 9 -8 280.837 63.1366 6
 4 9 -7 268.346 59.5873 7
 4 9 -7 445.882 70.0852 6
 4 9 -6 460.512 66.1335 7
 4 9 -6 391.475 62.5444 6
 5 -10 -5 39.3884 43.7075 1
 -5 -10 4 896.149 97.3744 3
 5 -10 -4 969.257 100.961 1
 -5 -10 3 29.1877 40.8243 3
 5 -10 -3 78.3093 41.0732 1
 -5 -10 2 86.5221 49.8632 3
 5 -10 -2 177.518 51.8078 1
 5 -10 -1 477.247 76.6522 1
 -5 -10 1 370.333 66.9869 3
 5 -10 0 182.215 57.7797 1
 -5 -10 0 130.665 54.4427 3
 5 -10 1 839.103 96.9749 1
 5 -9 -8 166.538 52.863 1
 5 -9 -7 462.614 69.4385 1
 -5 -9 7 512.877 75.1628 3
 5 -9 -7 328.322 65.8 3
 -5 -9 6 390.239 66.2238 3
 5 -9 -6 505.303 73.6692 3
 5 -9 -6 387.955 67.2709 1
 -5 -9 5 -9.34599 43.6327 3
 5 -9 -5 -9.33784 31.3205 1
 5 -9 -5 -19.0877 43.8318 3
 -5 -9 4 119.005 47.4673 3
 5 -9 -4 129.619 49.2438 1
 5 -9 -4 109.83 44.9078 3
 -5 -9 3 360.413 60.3613 3
 5 -9 -3 350.235 64.8153 3
 5 -9 -3 266.779 54.9546 1
 -5 -9 2 469.945 75.2191 3
 5 -9 -2 727.516 81.6797 1
 -5 -9 1 226.863 54.2395 3
 5 -9 -1 223.052 55.5682 1
 5 -9 0 245.42 64.3336 1
 -5 -9 0 265.291 55.2584 3
 5 -9 1 393.567 67.1477 1
 -5 -9 -1 419.047 65.3233 3
 5 -9 2 175.668 54.5683 1
 5 -9 3 368.035 72.7004 1
 -5 -9 -4 718.593 86.5238 8
 5 -9 4 629.785 81.3943 1
 -5 -8 9 142.907 48.2318 3
 5 -8 -9 203.626 55.5864 3
 -5 -8 8 139.799 51.8644 3
 5 -8 -8 39.42 36.9941 3
 5 -8 -8 18.7486 40.8788 1
 -5 -8 7 163.742 46.3055 3
 5 -8 -7 292.542 55.7238 1
 5 -8 -7 237.647 64.153 3
 -5 -8 6 88.6524 43.4582 3
 5 -8 -6 152.045 41.873 1
 5 -8 -6 55.0215 42.2329 3
 -5 -8 5 190.491 50.8212 3
 5 -8 -5 238.445 53.3777 3
 5 -8 -5 263.363 57.9466 1
 -5 -8 4 413.943 66.3549 3
 5 -8 -4 345.311 58.1955 1
 5 -8 -4 355.471 61.7625 3
 5 -8 -3 325.419 60.7593 1
 -5 -8 3 370.455 60.4653 3
 5 -8 -3 209.401 47.1799 3
 -5 -8 2 210.384 47.6379 3
 5 -8 -2 289.639 57.6633 1
 -5 -8 1 71.3976 38.9672 3
 5 -8 -1 179.681 44.96 1
 -5 -8 0 178.266 45.8989 3
 5 -8 0 208.637 52.9152 1
 5 -8 1 693.911 83.6433 1
 -5 -8 -1 688.517 73.7325 3
 5 -8 2 525.088 71.5618 1
 -5 -8 -3 -35.6786 42.3108 8
 5 -8 3 -9.25026 37.2013 1
 -5 -8 -4 594.77 77.3715 8
 5 -8 4 663.96 82.7762 1
 5 -8 5 479.778 72.7943 1
 -5 -8 -5 368.053 63.7788 8
 -5 -8 -6 232.015 57.4539 8
 5 -8 6 349.85 65.5456 1
 -5 -7 10 55.208 42.2682 3
 5 -7 -10 9.90739 38.08 3
 -5 -7 9 9.03577 29.3518 3
 5 -7 -9 47.9283 39.3814 3
 -5 -7 8 158.06 48.642 3
 5 -7 -8 221.358 55.5441 3
 -5 -7 7 110.722 41.9167 3
 5 -7 -7 211.981 52.0627 3
 -5 -7 6 213.665 50.9407 3
 5 -7 -6 177.094 47.7597 3
 5 -7 -6 142.11 45.2256 1
 -5 -7 5 191.412 48.2413 3
 5 -7 -5 265.067 50.8592 3
 5 -7 -5 187.571 50.7096 1
 5 -7 -4 591.6 67.6919 1
 -5 -7 4 479.164 61.6107 3
 5 -7 -4 482.058 63.3586 3
 -5 -7 3 1377.39 102.219 3
 5 -7 -3 1419.26 102.867 3
 5 -7 -3 1383.51 107.406 1
 -5 -7 2 211.462 49.7016 3
 5 -7 -2 255.316 47.4743 3
 -5 -7 1 163.503 39.7712 3
 5 -7 -1 101.615 42.6917 1
 -5 -7 0 159.624 43.926 3
 5 -7 0 205.749 48.1925 1
 5 -7 1 8.09696 35.9414 1
 -5 -7 -1 60.7721 33.0319 3
 5 -7 2 439.88 65.3074 1
 -5 -7 -3 606.964 77.87 8
 5 -7 3 595.58 75.577 1
 -5 -7 -4 510.259 72.9351 8
 5 -7 4 498.792 70.6868 1
 -5 -7 -5 671.397 76.5691 8
 5 -7 5 399.386 67.5212 1
 -5 -7 -6 57.7277 38.7382 8
 5 -7 6 65.5029 42.2975 1
 -5 -7 -7 160.751 52.8179 8
 5 -7 7 134.658 51.2222 1
 5 -6 -12 -60.1406 50.4627 3
 5 -6 -11 29.2728 42.5225 3
 5 -6 -10 9.43398 37.1018 3
 -5 -6 10 -8.76108 38.871 3
 -5 -6 9 323.568 60.7016 3
 5 -6 -9 354.268 63.2718 3
 -5 -6 8 413.564 61.4524 3
 5 -6 -8 529.978 72.5166 3
 -5 -6 7 373.871 61.4203 3
 5 -6 -7 214.802 51.6847 3
 5 -6 -6 2626.31 152.736 3
 -5 -6 6 2552.84 147.666 3
 5 -6 -5 1605.82 110.811 3
 5 -6 -5 1615.17 110.206 1
 -5 -6 5 1390.45 104.374 3
 5 -6 -4 1911.28 119.059 3
 5 -6 -4 1827.81 121.038 1
 -5 -6 4 1930.93 122.134 3
 -5 -6 3 488.325 60.781 3
 5 -6 -3 607.595 65.7251 3
 5 -6 -3 538.415 64.3371 1
 5 -6 -2 502.748 62.276 1
 5 -6 -2 464.677 57.641 3
 -5 -6 2 515.699 61.2588 3
 -5 -6 1 2464.66 138.177 3
 5 -6 -1 2812.34 148.377 1
 -5 -6 0 1605.76 104.375 3
 -5 -6 0 1621.63 107.571 4
 5 -6 0 1652.78 110.735 1
 -5 -6 0 1550.79 105.797 5
 -5 -6 -1 504.886 61.3004 5
 -5 -6 -1 356.714 51.3002 3
 5 -6 1 524.845 64.9503 1
 -5 -6 -1 546.477 65.4624 4
 -5 -6 -2 256.986 50.7181 5
 5 -6 2 195.373 45.6856 1
 -5 -6 -2 234.26 48.8991 8
 -5 -6 -2 328.055 53.9023 4
 -5 -6 -3 36.2513 32.7701 5
 -5 -6 -3 80.3229 36.7649 4
 -5 -6 -3 63.0747 35.0118 8
 5 -6 3 7.73071 35.5336 1
 -5 -6 -4 359.636 55.9212 5
 -5 -6 -4 313.471 56.4873 8
 -5 -6 -4 239.61 49.3274 4
 5 -6 4 239.913 50.0902 1
 -5 -6 -5 64.4514 35.7907 5
 -5 -6 -5 8.65854 35.6126 8
 -5 -6 -5 89.7963 39.3617 4
 5 -6 5 74.9779 40.7709 1
 -5 -6 -6 93.5177 39.1127 5
 -5 -6 -6 9.08685 36.6136 8
 5 -6 6 68.8625 43.3668 1
 -5 -6 -6 146.395 45.1516 4
 -5 -6 -7 107.493 46.9829 5
 5 -6 7 8.94205 38.3261 1
 -5 -6 -7 72.5786 43.1158 4
 -5 -6 -8 319.423 61.6162 8
 -5 -6 -8 603.447 78.0974 5
 5 -6 8 436.093 70.3206 1
 -5 -6 -8 621.8 78.3765 4
 5 -5 -12 235.606 54.6761 8
 5 -5 -12 520.813 71.7824 3
 5 -5 -11 277.897 57.5193 8
 5 -5 -11 262.018 57.2323 3
 -5 -5 10 75.217 35.8177 3
 5 -5 -10 80.9755 38.5471 3
 -5 -5 9 169.196 46.0974 3
 5 -5 -9 145.964 50.6484 3
 -5 -5 8 108.5 40.2933 3
 5 -5 -8 171.514 45.1163 3
 -5 -5 7 119.061 37.6355 3
 5 -5 -7 123.74 40.6803 3
 -5 -5 6 524.85 64.9495 3
 5 -5 -6 547.772 65.9018 3
 -5 -5 5 336.563 49.7236 3
 5 -5 -5 335.969 53.1544 3
 5 -5 -4 11613.6 425.773 3
 5 -5 -4 11110.3 425.473 1
 -5 -5 4 10767.5 421.585 3
 5 -5 -3 1331.92 90.342 3
 5 -5 -3 1256.71 90.1079 1
 -5 -5 3 1175.75 87.9907 3
 5 -5 -2 1749.22 102.469 3
 5 -5 -2 1654.39 106.046 1
 -5 -5 2 1660.24 101.872 3
 -5 -5 1 324.316 48.4438 5
 5 -5 -1 386.018 51.0725 1
 -5 -5 1 413.008 48.2398 3
 -5 -5 1 479.268 56.412 4
 -5 -5 0 489.645 60.9749 5
 -5 -5 0 450.397 51.9666 3
 -5 -5 0 502.215 57.948 4
 5 -5 0 578.505 60.7682 1
 -5 -5 -1 3339.1 164.606 4
 5 -5 1 3435.38 166.371 1
 -5 -5 -1 3007.89 161.258 5
 -5 -5 -2 1170.13 93.3684 8
 -5 -5 -2 1175.85 89.93 4
 5 -5 2 1212.67 90.5517 1
 -5 -5 -2 1187.49 89.9286 5
 5 -5 3 90.3848 35.9746 1
 -5 -5 -3 34.9524 31.6079 5
 -5 -5 -3 36.5912 34.7509 8
 -5 -5 -3 56.4863 37.0094 4
 -5 -5 -4 1924.14 125.998 5
 -5 -5 -4 1950.09 127.92 8
 -5 -5 -4 2078.39 127.678 7
 5 -5 4 2065.44 125.585 1
 -5 -5 -4 2143.51 129.583 6
 -5 -5 -4 1939.15 121.717 2
 -5 -5 -4 2181.19 131.918 4
 -5 -5 -5 311.731 52.326 5
 -5 -5 -5 354.516 56.0814 7
 -5 -5 -5 268.499 52.5844 4
 5 -5 5 280.031 50.4694 1
 -5 -5 -5 278.532 51.5666 6
 -5 -5 -5 234.376 56.2792 8
 -5 -5 -5 370.57 56.1205 2
 -5 -5 -6 198.381 52.179 5
 5 -5 6 220.39 49.7175 1
 -5 -5 -6 176.099 50.0455 4
 -5 -5 -6 136.234 43.8014 8
 -5 -5 -7 114.288 41.8716 5
 -5 -5 -7 107.795 45.3515 8
 -5 -5 -7 88.7638 36.6591 4
 5 -5 7 189.033 47.3971 1
 -5 -5 -8 577.875 79.5839 5
 -5 -5 -8 657.638 82.8417 4
 -5 -5 -8 670.088 81.6793 8
 -5 -5 -9 59.0944 38.8043 5
 -5 -5 -9 49.454 45.4833 8
 -5 -5 -9 118.918 47.0612 4
 5 -4 -13 -9.93993 40.831 8
 -5 -4 13 -9.29731 40.5079 1
 5 -4 -12 -9.29836 33.0901 8
 -5 -4 12 25.937 39.0488 1
 5 -4 -12 101.846 44.6056 3
 -5 -4 11 759.048 79.7779 3
 5 -4 -11 824.164 84.499 8
 -5 -4 11 682.573 76.4232 1
 5 -4 -11 632.983 76.3838 3
 -5 -4 10 263.414 51.3518 3
 5 -4 -10 298.592 58.0072 3
 5 -4 -10 112.467 38.6103 8
 -5 -4 9 666.772 75.2956 3
 5 -4 -9 522.3 64.1007 8
 5 -4 -9 574.983 69.389 3
 -5 -4 8 366.489 55.3233 3
 5 -4 -8 360.789 52.2085 8
 5 -4 -8 451.875 63.147 3
 5 -4 -7 3035.79 162.547 3
 5 -4 -7 3116.28 154.485 8
 -5 -4 7 2981.46 159.327 3
 5 -4 -6 2580.63 141.359 3
 -5 -4 6 2419.71 136.407 3
 -5 -4 5 712.12 67.9481 3
 5 -4 -5 585.81 61.3765 3
 5 -4 -4 2882.45 144.147 3
 -5 -4 4 2658.44 140.92 3
 5 -4 -3 5106.99 223.361 3
 5 -4 -3 5198.88 227.106 1
 -5 -4 3 5693.74 228.266 3
 5 -4 -2 289.109 43.2785 1
 -5 -4 2 266.308 41.1707 3
 5 -4 -2 218.197 37.1431 3
 5 -4 -1 4892.87 207.666 3
 -5 -4 1 5447.02 225.25 4
 5 -4 -1 4960.34 217.482 1
 -5 -4 1 5397 225.319 5
 -5 -4 1 5052.68 212.655 3
 -5 -4 0 1574.12 99.1391 4
 5 -4 0 1472.23 94.125 1
 -5 -4 0 1506.37 97.2601 5
 -5 -4 0 1562.98 89.2662 3
 -5 -4 -1 6.01541 26.2107 5
 5 -4 1 17.1484 24.9069 1
 -5 -4 -1 12.1058 25.8812 4
 -5 -4 -2 436.358 59.0306 5
 5 -4 2 600.927 58.8632 1
 -5 -4 -2 472.648 59.0893 4
 -5 -4 -2 586.818 60.3433 8
 5 -4 3 117.183 35.2421 1
 -5 -4 -3 93.234 35.9198 5
 -5 -4 -3 115.975 37.973 7
 -5 -4 -3 107.969 37.262 8
 -5 -4 -3 108.008 36.4058 4
 -5 -4 -3 123.889 37.2403 6
 -5 -4 -3 93.1744 33.5267 2
 -5 -4 -4 380.874 54.6891 5
 -5 -4 -4 248.487 50.3254 8
 -5 -4 -4 331.923 52.92 7
 5 -4 4 450.852 55.9185 1
 -5 -4 -4 328.061 55.1883 6
 -5 -4 -4 364.475 56.0278 4
 -5 -4 -4 352.335 54.4636 2
 -5 -4 -5 1294.61 101.588 5
 -5 -4 -5 1250.34 97.3598 8
 -5 -4 -5 1405.11 105.301 4
 -5 -4 -5 1234.55 96.7595 7
 5 -4 5 1120.25 88.7529 1
 -5 -4 -5 1085.65 92.9746 6
 -5 -4 -5 1349.86 98.4586 2
 -5 -4 -6 16.0795 36.9284 5
 -5 -4 -6 71.403 35.206 8
 5 -4 6 42.6521 32.6531 1
 -5 -4 -6 22.5514 33.9485 7
 -5 -4 -6 -8.1032 37.2197 4
 -5 -4 -6 22.7389 33.0296 6
 -5 -4 -6 -21.8435 32.3116 2
 -5 -4 -7 51.5123 39.7421 5
 -5 -4 -7 193.045 49.0114 8
 -5 -4 -7 221.824 49.0668 7
 -5 -4 -7 172.755 50.4244 4
 -5 -4 -7 168.024 49.5501 6
 -5 -4 -7 184.554 47.6416 2
 -5 -4 -8 612.822 77.0493 5
 -5 -4 -8 452.304 67.0281 8
 -5 -4 -8 560.626 72.6528 4
 -5 -4 -9 756.483 85.8873 5
 -5 -4 -9 885.609 89.5498 8
 -5 -4 -9 624.081 80.3008 4
 -5 -4 -10 390.414 71.4939 8
 5 -3 -13 -19.6716 39.5516 8
 -5 -3 13 18.6247 40.5726 1
 5 -3 -12 873.236 91.5025 8
 -5 -3 12 948.887 91.8879 1
 5 -3 -12 1021.2 96.0506 3
 -5 -3 11 454.413 63.93 3
 5 -3 -11 397.19 62.6197 8
 -5 -3 11 443.961 63.244 1
 5 -3 -11 477.097 63.4578 3
 -5 -3 10 1078.85 91.7132 3
 -5 -3 10 1147.89 91.4733 1
 5 -3 -10 1135.73 98.2862 3
 5 -3 -10 1221.23 97.8444 8
 5 -3 -9 1921.65 127.415 3
 5 -3 -9 2115.87 128.774 8
 -5 -3 9 2042.44 127.187 3
 -5 -3 9 1996.93 119.791 1
 5 -3 -8 1649.61 110.246 3
 -5 -3 8 1623.21 100.612 1
 5 -3 -8 1448.91 102.392 8
 -5 -3 8 1668.73 107.669 3
 5 -3 -7 4045.75 201.247 3
 5 -3 -7 4626.39 202.219 8
 -5 -3 7 4620.96 206.678 3
 5 -3 -6 2127.17 123.704 3
 5 -3 -6 2254.64 118.173 8
 -5 -3 6 1990.13 119.571 3
 5 -3 -5 1204.91 86.0571 3
 5 -3 -5 1259.8 81.1901 8
 -5 -3 5 1276.76 87.5814 3
 -5 -3 4 119.767 32.4037 3
 5 -3 -4 81.9339 23.8827 8
 5 -3 -4 75.3988 31.4167 3
 5 -3 -3 1093.63 75.0361 3
 -5 -3 3 1150.32 77.4065 3
 5 -3 -2 64.6361 28.4449 1
 -5 -3 2 127.239 29.9932 3
 5 -3 -2 102.765 27.7044 3
 -5 -3 1 583.382 57.6808 5
 -5 -3 1 612.695 51.1291 3
 -5 -3 1 576.999 57.7779 4
 5 -3 -1 538.018 47.8323 3
 5 -3 -1 579.902 52.6886 1
 -5 -3 0 5038.9 217.587 4
 5 -3 0 4762.6 208.364 1
 -5 -3 0 5311 205.188 3
 -5 -3 0 5185.65 218.123 5
 -5 -3 -1 2746.04 138.636 2
 5 -3 1 2626.03 132.782 1
 -5 -3 -1 2769.85 140.972 4
 -5 -3 -1 2909.24 143.08 5
 -5 -3 -2 23.8603 28.7392 5
 5 -3 2 20.6907 25.6672 1
 -5 -3 -2 23.5634 22.099 8
 -5 -3 -2 35.4455 29.7272 7
 -5 -3 -2 6.02991 30.7609 4
 -5 -3 -2 11.9373 29.1886 6
 -5 -3 -2 17.0675 30.5512 2
 -5 -3 -3 1182.08 88.0052 5
 -5 -3 -3 1091.71 83.4208 8
 -5 -3 -3 1421.14 93.8094 4
 -5 -3 -3 1222.35 88.7495 7
 -5 -3 -3 1054.74 83.1293 6
 5 -3 3 1298.03 83.9362 1
 -5 -3 -3 1008.71 81.3457 2
 -5 -3 -4 2490.58 140.88 5
 -5 -3 -4 2462.08 137.491 8
 -5 -3 -4 2594.56 143.052 4
 -5 -3 -4 2650.14 141.105 7
 5 -3 4 2449.23 130.691 1
 -5 -3 -4 2474.36 139.866 6
 -5 -3 -4 2500.89 137.315 2
 -5 -3 -5 3724.77 186.481 5
 -5 -3 -5 3758.4 183 8
 -5 -3 -5 3804.89 187.751 4
 -5 -3 -5 3765.52 185.34 7
 -5 -3 -5 3569.08 183.281 6
 -5 -3 -5 3628.93 182.703 2
 -5 -3 -6 155.384 45.902 5
 -5 -3 -6 156.144 40.7441 7
 -5 -3 -6 164.136 46.1747 4
 -5 -3 -6 172.941 43.995 6
 -5 -3 -6 122.994 41.9196 2
 -5 -3 -6 234.816 48.731 8
 -5 -3 -7 350.12 62.5487 5
 -5 -3 -7 241.679 50.7932 8
 -5 -3 -7 307.984 57.8449 7
 -5 -3 -7 385.522 61.2846 4
 -5 -3 -7 351 61.4021 6
 -5 -3 -7 299.986 55.6465 2
 -5 -3 -8 500.063 66.8341 5
 -5 -3 -8 396.565 62.8431 8
 -5 -3 -8 476.977 65.8901 7
 -5 -3 -8 547.446 71.2456 4
 -5 -3 -8 430.935 62.2132 6
 -5 -3 -8 383.164 61.2974 2
 -5 -3 -9 542.756 73.8395 5
 -5 -3 -9 506.699 68.4752 8
 -5 -3 -9 459.281 70.3617 7
 -5 -3 -9 535.878 72.4299 4
 -5 -3 -9 562.138 73.7469 6
 -5 -3 -9 605.502 75.8932 2
 -5 -3 -10 302.835 66.8838 5
 -5 -3 -10 334.77 67.2077 4
 5 -2 -13 88.2912 39.5795 8
 -5 -2 13 121.226 50.1684 1
 5 -2 -12 929.765 91.5917 8
 -5 -2 12 908.828 92.338 1
 5 -2 -12 1048.83 93.4658 3
 -5 -2 11 335.608 56.2635 3
 5 -2 -11 188.752 51.1654 8
 -5 -2 11 294.429 50.7457 1
 5 -2 -11 337.419 57.6192 3
 -5 -2 10 81.9162 40.0468 3
 -5 -2 10 101.521 36.0436 1
 5 -2 -10 55.5372 31.9855 8
 5 -2 -10 54.7496 35.39 3
 5 -2 -9 1418.13 104.099 3
 -5 -2 9 1499.21 100.165 1
 5 -2 -9 1432.9 103.975 8
 -5 -2 9 1480.39 101.705 3
 -5 -2 8 293.36 48.0019 3
 5 -2 -8 220.926 46.5291 8
 -5 -2 8 292.668 42.3734 1
 5 -2 -8 367.32 52.4694 3
 5 -2 -7 1399.09 94.6424 3
 -5 -2 7 1244.62 82.9565 1
 5 -2 -7 1255.03 88.0633 8
 -5 -2 7 1296.43 90.3392 3
 5 -2 -6 5227.44 232.66 3
 -5 -2 6 5339.66 220.158 1
 5 -2 -6 5688.21 232.137 8
 -5 -2 6 5682.06 235.48 3
 5 -2 -5 10316.2 390.051 3
 5 -2 -5 10180.7 383.597 8
 -5 -2 5 10728.3 391.348 3
 5 -2 -4 2714.39 124.182 5
 5 -2 -4 2742.48 134.852 3
 5 -2 -4 2744.7 130.083 8
 5 -2 -4 2787.07 124.936 4
 -5 -2 4 2885.69 137.596 3
 5 -2 -3 863.282 58.4904 5
 5 -2 -3 894.161 59.367 4
 5 -2 -3 1045.09 69.5905 3
 5 -2 -3 1047.16 64.9064 8
 -5 -2 3 972.081 67.5492 3
 5 -2 -2 3190.79 133.243 5
 5 -2 -2 3084.79 137.549 3
 5 -2 -2 3056.74 133.531 8
 5 -2 -2 2917.56 131.232 7
 5 -2 -2 2983.53 131.761 4
 5 -2 -2 2997.15 131.347 6
 -5 -2 2 3087.03 138.929 3
 5 -2 -1 5041.51 199.077 3
 -5 -2 1 4975.84 211.88 4
 5 -2 -1 5047.42 204.894 1
 -5 -2 1 5080.48 201.985 3
 -5 -2 1 5182.7 213.48 5
 -5 -2 0 9202 347.308 4
 5 -2 0 9339.45 337.642 1
 -5 -2 0 9068.83 330.432 3
 -5 -2 0 9108.16 346.159 5
 -5 -2 -1 2369.32 123.531 5
 -5 -2 -1 2319.31 122.632 4
 -5 -2 -1 2391.66 124.516 7
 -5 -2 -1 2447.07 125.123 6
 -5 -2 -1 2243.17 120.077 2
 5 -2 1 2262.06 113.247 1
 -5 -2 -2 1569.65 98.4636 5
 -5 -2 -2 1630.62 100.896 4
 -5 -2 -2 1682.64 98.9685 8
 -5 -2 -2 1620.61 100.587 7
 -5 -2 -2 1607.59 99.7799 6
 5 -2 2 1641.85 90.269 1
 -5 -2 -2 1669.31 100.181 2
 -5 -2 -3 -5.96587 24.507 5
 -5 -2 -3 24.0736 29.8551 7
 -5 -2 -3 -6.0509 24.8562 4
 -5 -2 -3 -6.07206 30.9699 6
 -5 -2 -3 44.8385 26.9976 8
 5 -2 3 -9.22751 19.7271 1
 -5 -2 -3 46.6245 31.2909 2
 -5 -2 -4 64.2626 32.4501 5
 -5 -2 -4 71.1828 30.3829 8
 -5 -2 -4 109.227 38.9486 7
 -5 -2 -4 97.1391 35.7158 4
 -5 -2 -4 123.336 35.8005 6
 -5 -2 -4 74.9173 36.3745 2
 -5 -2 -5 1629.91 109.243 5
 -5 -2 -5 1575.72 101.891 8
 -5 -2 -5 1533.93 106.688 4
 -5 -2 -5 1588.42 107.286 7
 -5 -2 -5 1735.17 110.535 6
 -5 -2 -5 1727.39 108.67 2
 -5 -2 -6 2659.54 148 5
 -5 -2 -6 2336.46 136.133 8
 -5 -2 -6 2619.96 148.246 4
 -5 -2 -6 2581.99 146.284 7
 -5 -2 -6 2668.98 148.946 6
 -5 -2 -6 2379.09 142.704 2
 -5 -2 -7 1026.13 90.1299 5
 -5 -2 -7 991.501 83.4921 8
 -5 -2 -7 989.449 91.5541 7
 -5 -2 -7 1055.49 93.0373 4
 -5 -2 -7 1105.33 93.7594 6
 -5 -2 -7 953.293 90.2776 2
 -5 -2 -8 175.844 47.9791 7
 -5 -2 -8 252.274 58.1909 5
 -5 -2 -8 168.298 43.8979 8
 -5 -2 -8 200.965 54.6491 4
 -5 -2 -8 228.979 50.121 6
 -5 -2 -8 124.358 43.2516 2
 -5 -2 -9 -46.5818 41.335 5
 -5 -2 -9 -17.7498 45.2644 7
 -5 -2 -9 102.934 46.4185 4
 -5 -2 -9 53.8605 47.0049 6
 -5 -2 -9 -8.80467 42.4094 2
 -5 -2 -10 208.197 56.3065 5
 -5 -2 -10 262.079 59.763 7
 -5 -2 -10 278.818 58.9635 4
 -5 -2 -10 255.884 56.7282 6
 -5 -2 -10 222.926 55.6207 2
 5 -1 -14 76.9325 42.7336 5
 -5 -1 14 50.1138 44.5331 1
 5 -1 -14 95.6072 42.4862 4
 5 -1 -13 885.968 89.1012 5
 5 -1 -13 602.058 79.3922 8
 -5 -1 13 666.041 79.6663 1
 5 -1 -13 603.353 80.7008 4
 5 -1 -12 303.304 56.5489 5
 5 -1 -12 255.591 61.5982 8
 -5 -1 12 270.308 56.6042 1
 5 -1 -12 378.289 58.5873 3
 5 -1 -12 394.561 61.804 4
 -5 -1 11 332.334 56.1377 3
 5 -1 -11 396.721 59.7756 5
 5 -1 -11 468.385 67.8653 8
 -5 -1 11 457.745 63.0741 1
 5 -1 -11 354.239 59.8956 3
 5 -1 -11 488.267 67.54 4
 5 -1 -10 1525.27 105.373 5
 5 -1 -10 1254.26 100.92 3
 -5 -1 10 1423.26 102.345 1
 5 -1 -10 1186.79 99.8514 8
 5 -1 -10 1585.07 106.812 4
 -5 -1 10 1395.47 104.635 3
 5 -1 -9 2261.45 131.84 5
 5 -1 -9 2389 139.296 3
 -5 -1 9 2360.24 132.932 1
 5 -1 -9 2299.17 131.583 4
 5 -1 -9 2433.89 140.143 8
 -5 -1 9 2487.23 138.459 3
 5 -1 -8 6111.7 253.391 5
 5 -1 -8 6012.03 261.126 3
 -5 -1 8 5678.65 250.45 1
 5 -1 -8 6088.85 253.817 4
 5 -1 -8 6124.82 260.869 8
 -5 -1 8 6513.35 262.641 3
 5 -1 -7 601.793 62.286 8
 -5 -1 7 564.369 58.1673 3
 5 -1 -7 656.471 59.6293 5
 -5 -1 7 575.606 56.1782 1
 5 -1 -7 591.933 63.0592 3
 5 -1 -7 679.989 59.786 4
 5 -1 -6 1060.68 73.3008 5
 -5 -1 6 925.231 70.0807 1
 5 -1 -6 1062.92 72.5002 4
 5 -1 -6 1136.95 79.0921 8
 -5 -1 6 971.045 76.0178 3
 -5 -1 5 219.465 36.216 3
 5 -1 -5 148.558 31.3057 5
 -5 -1 5 140.996 28.0561 1
 5 -1 -5 184.153 34.946 8
 5 -1 -5 126.374 29.7444 4
 5 -1 -4 1743.44 92.9445 5
 -5 -1 4 1769.13 89.4654 1
 5 -1 -4 1773.21 89.6611 7
 5 -1 -4 1727.52 92.7076 4
 5 -1 -4 1610.65 94.2431 8
 5 -1 -4 1913.98 91.4688 6
 -5 -1 4 1641.45 95.72 3
 5 -1 -3 5747.4 217.436 5
 5 -1 -3 5358.84 216.6 8
 5 -1 -3 5162.49 210.913 7
 5 -1 -3 5629.82 216.739 4
 5 -1 -3 5112.12 210.221 6
 -5 -1 3 5680.78 219.943 3
 -5 -1 2 263.541 33.5906 3
 5 -1 -2 241.605 33.1656 5
 5 -1 -2 226.508 30.6245 8
 5 -1 -2 184.169 29.9033 7
 5 -1 -2 262.388 32.6094 4
 5 -1 -2 196.467 30.3013 6
 -5 -1 1 841.476 65.5581 4
 5 -1 -1 836.512 58.1145 1
 -5 -1 1 974.428 59.4287 3
 -5 -1 1 1002.33 69.3988 5
 -5 -1 0 675.712 57.0863 5
 -5 -1 0 603.055 54.3773 7
 -5 -1 0 660.809 56.1432 4
 -5 -1 0 648.167 56.2174 6
 5 -1 0 620.037 46.3255 1
 -5 -1 0 598.293 53.8097 2
 -5 -1 0 475.955 42.9998 3
 -5 -1 -1 1784.34 103.059 5
 -5 -1 -1 1865.51 105.647 7
 -5 -1 -1 1981.47 106.543 4
 -5 -1 -1 2036.11 109.006 6
 5 -1 1 1960.24 94.2243 1
 -5 -1 -1 1917.37 105.523 2
 -5 -1 -2 52.4785 27.1849 5
 -5 -1 -2 65.1647 30.9346 7
 -5 -1 -2 26.5682 23.2214 4
 -5 -1 -2 76.6525 31.8574 6
 -5 -1 -2 89.4125 31.2359 2
 -5 -1 -3 3562.57 165.77 5
 -5 -1 -3 3482.68 159.966 8
 -5 -1 -3 3385.36 163.656 4
 -5 -1 -3 3464.07 166.648 7
 -5 -1 -3 3654.09 169.283 6
 -5 -1 -3 3440.42 165.792 2
 -5 -1 -4 6353.65 267.86 5
 -5 -1 -4 6322.23 260.684 8
 -5 -1 -4 6519.88 269.235 4
 -5 -1 -4 6323.49 269.02 7
 -5 -1 -4 6664.86 272.349 6
 -5 -1 -4 6738.47 271.633 2
 -5 -1 -5 2541.06 140.88 5
 -5 -1 -5 2670.79 135.295 8
 -5 -1 -5 2553 141.205 4
 -5 -1 -5 2572.21 141.972 7
 -5 -1 -5 2527.27 142.162 6
 -5 -1 -5 2610.44 142.81 2
 -5 -1 -6 441.914 59.9642 2
 -5 -1 -6 525.859 64.355 5
 -5 -1 -6 416.575 53.1388 8
 -5 -1 -6 597.358 65.611 7
 -5 -1 -6 470.474 62.6197 4
 -5 -1 -6 493.527 61.2168 6
 -5 -1 -7 813.888 81.8291 2
 -5 -1 -7 883.164 84.0633 5
 -5 -1 -7 831.956 82.3087 7
 -5 -1 -7 698.609 77.7158 4
 -5 -1 -7 711.189 79.0202 6
 -5 -1 -8 109.079 49.8552 2
 -5 -1 -8 76.0555 40.8352 5
 -5 -1 -8 109.329 44.7175 7
 -5 -1 -8 127.238 40.9885 4
 -5 -1 -8 93.1545 45.0279 6
 -5 -1 -9 331.165 62.5148 2
 -5 -1 -9 417.726 70.3322 5
 -5 -1 -9 296.321 59.4627 7
 -5 -1 -9 510.459 71.0035 4
 -5 -1 -9 315.285 62.4491 6
 -5 -1 -10 56.891 38.1936 2
 -5 -1 -10 145.562 49.5436 5
 -5 -1 -10 133.196 45.8802 7
 -5 -1 -10 19.4817 36.5942 4
 -5 -1 -10 47.73 40.0827 6
 -5 -1 -11 109.686 54.1941 2
 -5 -1 -11 -20.0044 45.947 7
 -5 -1 -11 30.1123 45.3341 6
 5 0 -14 39.6935 44.8282 5
 5 0 -14 30.3986 42.5028 8
 5 0 -14 19.7733 46.1755 4
 -5 0 14 90.5428 49.2049 1
 5 0 -13 355.355 64.9649 5
 5 0 -13 240.065 54.9407 8
 -5 0 13 387.662 63.7254 1
 5 0 -13 307.279 60.8084 4
 5 0 -12 69.7255 45.6638 5
 5 0 -12 45.2538 33.9735 8
 -5 0 12 52.8241 39.783 1
 5 0 -12 33.3235 32.8001 3
 5 0 -12 60.7817 41.214 4
 5 0 -11 806.837 81.1875 5
 5 0 -11 585.445 70.8421 8
 5 0 -11 557.879 74.1856 3
 5 0 -11 627.569 69.8065 4
 -5 0 11 642.567 76.5165 1
 -5 0 10 198.292 50.0099 3
 5 0 -10 156.075 44.4739 5
 5 0 -10 229.267 50.8408 8
 -5 0 10 164.174 40.9948 1
 5 0 -10 215.705 48.2814 4
 -5 0 9 905.607 79.7114 3
 5 0 -9 1066.92 84.6113 5
 -5 0 9 805.662 76.1198 1
 5 0 -9 924.109 85.4519 8
 5 0 -9 1071.51 84.9288 4
 5 0 -8 2489.41 136.676 5
 -5 0 8 2495.28 137.646 1
 5 0 -8 2663.17 143.259 8
 5 0 -8 2491.1 136.652 4
 -5 0 8 2758.24 142.585 3
 5 0 -7 2523.31 133.557 5
 -5 0 7 2748.39 136.189 1
 5 0 -7 2545.38 137.021 8
 5 0 -7 2558.76 134.211 4
 -5 0 7 2514.61 135.736 3
 5 0 -6 -10.5209 22.4905 5
 -5 0 6 -16.7295 27.662 3
 -5 0 6 15.0477 22.2544 1
 5 0 -6 5.73536 22.5559 8
 5 0 -6 8.82845 21.5816 7
 5 0 -6 10.5526 23.4098 4
 5 0 -6 -4.43028 22.288 6
 -5 0 5 17.934 20.2456 1
 -5 0 5 5.1327 21.9454 3
 5 0 -5 -4.90221 21.3592 5
 5 0 -5 5.30275 25.9266 8
 5 0 -5 -4.23134 20.071 7
 5 0 -5 24.5842 25.4145 4
 5 0 -5 12.7471 20.1548 6
 5 0 -4 6002.62 235.215 5
 -5 0 4 5728.94 226.86 1
 5 0 -4 5823.02 236.583 8
 5 0 -4 6046.5 231.317 7
 5 0 -4 5585.6 232.611 4
 5 0 -4 6136.79 231.64 6
 -5 0 4 5562.83 232.595 3
 -5 0 3 31.9788 18.4058 1
 -5 0 3 42.5424 22.5931 3
 5 0 -3 13.5274 22.7175 5
 5 0 -3 46.2147 24.2299 8
 5 0 -3 25.5062 22.5761 7
 5 0 -3 72.5195 26.6304 4
 5 0 -3 50.5258 24.2337 6
 -5 0 2 286.061 31.295 1
 -5 0 2 290.347 34.086 3
 5 0 -2 254.456 37.0129 5
 5 0 -2 320.557 38.3363 7
 5 0 -2 308.264 39.2851 4
 5 0 -2 272.882 37.2576 6
 -5 0 1 29.6881 21.0957 5
 -5 0 1 40.6504 18.2537 3
 -5 0 1 33.8106 25.6011 7
 -5 0 1 80.5663 24.4243 4
 5 0 -1 40.4812 24.7796 7
 -5 0 1 38.4689 23.8238 6
 5 0 -1 71.7047 19.3021 1
 -5 0 1 48.72 22.3771 2
 5 0 -1 53.0822 24.3713 6
 -5 0 0 12.9293 19.7955 5
 -5 0 0 17.6918 15.6402 3
 -5 0 0 13.5409 23.332 7
 -5 0 0 4.33561 19.9142 4
 -5 0 0 -4.53383 20.4745 6
 -5 0 0 17.302 20.8373 2
 -5 0 -1 5872.53 234.847 5
 -5 0 -1 5893.52 235.465 4
 -5 0 -1 5850.03 237.364 7
 -5 0 -1 5883.35 237.842 6
 -5 0 -1 5926.93 236.44 2
 -5 0 -2 4093.52 183.578 5
 -5 0 -2 4468.01 187.636 4
 -5 0 -2 4120.02 187.362 7
 -5 0 -2 4431.81 190.832 6
 -5 0 -2 4400.72 188.335 2
 -5 0 -3 42.4433 25.574 5
 -5 0 -3 17.9116 18.0342 8
 -5 0 -3 22.6888 25.1862 7
 -5 0 -3 26.7276 24.9752 4
 -5 0 -3 40.1356 25.9086 6
 -5 0 -3 61.3991 29.2446 2
 -5 0 -4 6066.58 254.291 5
 -5 0 -4 6234.12 246.359 8
 -5 0 -4 6155.74 255.558 4
 -5 0 -4 5921.55 256.911 7
 -5 0 -4 6199.97 259.631 6
 -5 0 -4 6435.85 260.835 2
 -5 0 -5 447.853 56.9683 2
 -5 0 -5 418.037 53.1171 5
 -5 0 -5 396.387 55.2664 7
 -5 0 -5 464.548 56.4605 4
 -5 0 -5 491.334 60.0513 6
 -5 0 -6 137.816 44.3554 2
 -5 0 -6 103.836 37.2594 5
 -5 0 -6 87.5923 41.1414 7
 -5 0 -6 41.7111 34.5858 4
 -5 0 -6 65.6066 39.2262 6
 -5 0 -7 574.186 70.1304 2
 -5 0 -7 754.84 75.6927 5
 -5 0 -7 710.363 77.1787 7
 -5 0 -7 704.59 73.7925 4
 -5 0 -7 717.095 77.9092 6
 -5 0 -8 169.265 50.8523 2
 -5 0 -8 106.25 42.4539 5
 -5 0 -8 93.3964 41.7249 7
 -5 0 -8 180.343 48.2974 4
 -5 0 -8 135.746 46.2947 6
 -5 0 -9 45.2867 42.2858 2
 -5 0 -9 44.1102 40.5177 5
 -5 0 -9 36.4021 42.4874 7
 -5 0 -9 -8.84839 38.5535 4
 -5 0 -9 -27.2169 42.3556 6
 -5 0 -10 144.442 53.0937 2
 -5 0 -10 103.967 48.368 5
 -5 0 -10 77.4045 50.8189 7
 -5 0 -10 180.117 49.1587 4
 -5 0 -10 115.767 50.6712 6
 -5 0 -11 132 58.6178 2
 -5 0 -11 160.798 47.2286 5
 -5 0 -11 211.681 53.0587 4
 5 1 -14 61.1011 40.989 5
 5 1 -14 49.9422 34.5778 8
 5 1 -14 60.8809 44.2443 4
 5 1 -13 586.539 77.8742 5
 -5 1 13 663.58 83.1366 1
 5 1 -13 599.085 78.3006 8
 5 1 -13 699.182 83.5924 4
 5 1 -12 314.72 59.8094 5
 -5 1 12 395.37 61.6389 1
 5 1 -12 215.937 51.1254 8
 5 1 -12 456.448 65.8273 4
 5 1 -11 342.097 60.1974 5
 -5 1 11 417.114 63.3551 1
 5 1 -11 358.372 62.1282 4
 5 1 -11 414.561 62.2294 8
 5 1 -10 1277.11 100.104 5
 -5 1 10 1318.41 101.034 1
 5 1 -10 1423.59 104.874 8
 5 1 -10 1318.59 100.698 4
 5 1 -9 2483.5 140.258 5
 -5 1 9 2531.9 141.393 1
 5 1 -9 2347.57 140.202 8
 5 1 -9 2428.77 140.253 4
 5 1 -8 6038.84 257.249 5
 -5 1 8 6060.06 257.186 1
 5 1 -8 5906.71 258.314 8
 5 1 -8 6065.65 249.862 7
 5 1 -8 5858.03 255.665 4
 5 1 -8 6107.14 250.322 6
 -5 1 7 543.828 59.2728 3
 -5 1 7 728.112 65.2362 1
 5 1 -7 593.476 61.1628 5
 5 1 -7 615.859 61.8125 8
 5 1 -7 498.684 53.2603 7
 5 1 -7 570.403 61.2744 4
 5 1 -7 680.78 59.039 6
 5 1 -6 973.54 75.5871 5
 -5 1 6 919.182 72.8818 1
 5 1 -6 1070.67 79.3288 8
 5 1 -6 1022.23 73.5985 7
 5 1 -6 1184.03 82.3501 4
 5 1 -6 1177.38 76.444 6
 -5 1 6 1062.28 78.8823 3
 -5 1 5 156.254 32.6599 1
 -5 1 5 171.43 34.1429 3
 5 1 -5 116.6 31.23 5
 5 1 -5 166.239 36.3681 8
 5 1 -5 220.828 37.0428 7
 5 1 -5 180.61 33.1461 4
 5 1 -5 154.237 33.9756 6
 5 1 -4 1635.46 95.7993 5
 -5 1 4 1731.8 94.1152 1
 5 1 -4 1612.9 94.038 7
 5 1 -4 1684.83 97.173 4
 5 1 -4 1519.04 92.4044 6
 5 1 -4 1942.95 102.551 8
 -5 1 4 1507.63 90.9457 3
 -5 1 3 5187 212.143 1
 5 1 -3 5645.26 223.519 5
 5 1 -3 5529.46 221.236 7
 5 1 -3 5375.89 221.762 4
 5 1 -3 5558.07 221.21 6
 -5 1 3 5144.33 214.27 3
 -5 1 2 190.937 29.6509 1
 -5 1 2 203.558 30.5524 3
 5 1 -2 235.168 35.4414 5
 5 1 -2 210.344 36.8654 7
 5 1 -2 231.248 35.3421 4
 5 1 -2 155.671 32.2928 6
 -5 1 1 967.151 62.5144 4
 -5 1 1 973.177 63.0908 7
 5 1 -1 1017.51 71.1103 7
 -5 1 1 869.688 60.4391 6
 -5 1 1 950.962 62.0016 2
 5 1 -1 1090.41 72.3309 6
 -5 1 1 819.792 56.2086 3
 -5 1 1 882.932 61.1863 5
 -5 1 0 651.23 50.6195 4
 -5 1 0 706.167 55.5658 7
 -5 1 0 676.091 54.3301 6
 -5 1 0 528.893 48.5172 2
 -5 1 0 663.09 50.9043 5
 -5 1 -1 1787.93 96.4802 5
 -5 1 -1 1801.88 96.8973 4
 -5 1 -1 1837.19 100.55 7
 -5 1 -1 2017.63 103.613 6
 -5 1 -1 1870.26 100.459 2
 -5 1 -2 54.3704 25.5573 5
 -5 1 -2 81.1785 28.6025 7
 -5 1 -2 22.9448 21.8511 4
 -5 1 -2 97.3791 29.5242 6
 -5 1 -2 75.012 26.9176 2
 -5 1 -3 3647.4 163.803 5
 -5 1 -3 3429.31 161.989 4
 -5 1 -3 3776.46 170.56 7
 -5 1 -3 3863.18 172.321 6
 -5 1 -3 3439.66 167.037 2
 -5 1 -4 6481.41 265.413 5
 -5 1 -4 6682.12 266.951 4
 -5 1 -4 6579.24 272.647 7
 -5 1 -4 6297.95 269.77 6
 -5 1 -4 6952.3 275.095 2
 -5 1 -5 2785.24 141.574 5
 -5 1 -5 2604.26 139.512 4
 -5 1 -5 2547.37 143.221 7
 -5 1 -5 2871.75 148.048 6
 -5 1 -5 2683.87 145.544 2
 -5 1 -6 547.713 68.3764 2
 -5 1 -6 471.192 56.9914 5
 -5 1 -6 411.143 59.2492 7
 -5 1 -6 486.204 58.796 4
 -5 1 -6 394.124 59.5537 6
 -5 1 -7 779.164 81.8493 2
 -5 1 -7 631.374 69.9367 5
 -5 1 -7 709.247 78.121 7
 -5 1 -7 742.366 74.4948 4
 -5 1 -7 744.513 79.091 6
 -5 1 -8 102.961 43.3186 2
 -5 1 -8 55.3096 35.2456 5
 -5 1 -8 103.177 40.9443 7
 -5 1 -8 174.333 44.7198 4
 -5 1 -8 179.604 46.6166 6
 -5 1 -9 294.724 59.3129 2
 -5 1 -9 357.408 58.5488 5
 -5 1 -9 442.65 66.5095 7
 -5 1 -9 315.696 56.477 4
 -5 1 -9 320.936 58.5583 6
 -5 1 -10 166.69 49.5242 2
 -5 1 -10 146.286 48.0759 5
 -5 1 -10 88.4019 45.3232 7
 -5 1 -10 165.011 46.328 4
 -5 1 -10 126.993 50.6824 6
 -5 1 -11 -9.73894 40.0145 5
 -5 1 -11 68.3549 40.9484 4
 5 2 -14 383.526 62.9064 8
 5 2 -13 128.028 56.0863 5
 -5 2 13 176.811 54.7155 1
 5 2 -13 56.4319 37.9401 8
 5 2 -13 68.6732 46.6295 4
 5 2 -12 775.381 88.7832 5
 -5 2 12 664.152 82.4358 1
 5 2 -12 911.668 89.3955 8
 5 2 -12 828.349 88.5458 4
 5 2 -11 293.092 53.2368 5
 -5 2 11 232.459 54.6222 1
 5 2 -11 244.584 51.6302 8
 5 2 -11 241.471 54.2315 4
 -5 2 10 111.885 44.0563 1
 5 2 -10 80.4574 38.8845 5
 5 2 -10 103.031 41.6221 8
 5 2 -10 92.2018 37.2745 7
 5 2 -10 80.7374 39.0189 4
 5 2 -10 135.39 39.3086 6
 5 2 -9 1377.47 103.69 5
 -5 2 9 1666.4 110.824 1
 5 2 -9 1580.87 109.079 8
 5 2 -9 1541.31 104.198 7
 5 2 -9 1575.93 108.737 4
 5 2 -9 1388.04 100.286 6
 -5 2 8 191.306 44.6871 1
 5 2 -8 255.164 48.6591 5
 5 2 -8 249.584 45.6959 8
 5 2 -8 277.512 47.6443 7
 5 2 -8 276.569 50.8071 4
 5 2 -8 228.066 43.8508 6
 5 2 -7 1094.12 87.1656 5
 -5 2 7 1138.21 87.7425 1
 5 2 -7 1302.54 89.6621 7
 5 2 -7 1296.14 92.5113 4
 5 2 -7 1352.87 90.3698 6
 5 2 -7 1322.37 92.3766 8
 5 2 -6 5817.34 245.203 5
 -5 2 6 5764.1 243.099 1
 5 2 -6 5909.46 247.03 8
 5 2 -6 5802.53 242.155 7
 5 2 -6 5981.92 246.703 4
 5 2 -6 5513.12 239.138 6
 5 2 -5 10481.4 388.245 5
 -5 2 5 10266.8 384.285 1
 5 2 -5 9807.9 381.772 7
 5 2 -5 10317.4 387.914 4
 5 2 -5 10296.4 384.327 6
 5 2 -5 10371.5 388.695 8
 5 2 -4 2651.62 135.362 5
 -5 2 4 2477.6 128.768 1
 5 2 -4 2871.73 138.944 4
 5 2 -4 2721.44 136.285 8
 5 2 -4 2720.15 135.038 7
 5 2 -4 2631.61 134.241 6
 -5 2 3 1033.56 69.1509 1
 5 2 -3 962.854 71.8194 5
 5 2 -3 992.487 73.9524 7
 5 2 -3 994.169 72.6518 4
 5 2 -3 919.245 70.8456 6
 -5 2 2 2845.64 138.1 1
 5 2 -2 3063.25 147.674 5
 5 2 -2 3014.57 147.409 7
 5 2 -2 3336.53 151.646 4
 -5 2 2 3229.74 132.213 2
 5 2 -2 3110.18 148.227 6
 -5 2 1 5108.98 194.176 4
 -5 2 1 4858.59 195.066 7
 5 2 -1 5192.66 213.352 7
 -5 2 1 4793.68 194.967 6
 -5 2 1 5082.57 195.111 2
 5 2 -1 5136.95 212.161 6
 -5 2 1 4647.82 191.676 5
 -5 2 0 8747.46 323.332 4
 -5 2 0 9132.5 329.677 7
 5 2 0 9236.49 344.774 7
 -5 2 0 9094.99 329.871 6
 5 2 0 8740.93 341.165 6
 -5 2 0 9119.11 328.625 2
 -5 2 0 8705.58 323.008 5
 -5 2 -1 2345.25 109.94 5
 -5 2 -1 2431.4 111.326 4
 -5 2 -1 2053.01 112.08 7
 -5 2 -1 2418.59 117.373 6
 -5 2 -1 2306.47 114.613 2
 -5 2 -2 1492.75 85.368 5
 -5 2 -2 1541.27 86.527 4
 -5 2 -2 1600.54 93.0243 7
 -5 2 -2 1452.08 90.3291 6
 -5 2 -2 1672.08 94.1597 2
 -5 2 -3 5.4927 26.4602 2
 -5 2 -3 9.2684 22.3258 5
 -5 2 -3 27.659 27.8331 7
 -5 2 -3 18.6309 23.1088 4
 -5 2 -3 11.0229 26.1451 6
 -5 2 -4 85.3018 33.2219 2
 -5 2 -4 56.6588 30.0466 5
 -5 2 -4 147.28 37.91 7
 -5 2 -4 77.6135 29.552 4
 -5 2 -4 85.282 33.9905 6
 -5 2 -5 1597.62 100.466 5
 -5 2 -5 1736.32 103.599 4
 -5 2 -5 1520.59 106.559 7
 -5 2 -5 1741.63 111.942 6
 -5 2 -5 1849.45 112.991 2
 -5 2 -6 2566.5 137.347 5
 -5 2 -6 2518.23 136.836 4
 -5 2 -6 2454.91 143.018 7
 -5 2 -6 2522.75 143.666 6
 -5 2 -6 2446.27 142.538 2
 -5 2 -7 994.28 91.8022 2
 -5 2 -7 1058.22 88.6111 5
 -5 2 -7 947.959 90.7111 7
 -5 2 -7 1047.66 86.7081 4
 -5 2 -7 1173.79 96.4782 6
 -5 2 -8 234.124 52.92 2
 -5 2 -8 173.705 48.2921 7
 -5 2 -8 276.286 51.6925 6
 -5 2 -9 9.31581 38.2737 2
 -5 2 -9 65.3031 43.5583 7
 -5 2 -9 9.27609 34.7914 6
 -5 2 -10 258.315 65.1409 2
 -5 2 -10 318.084 69.3049 7
 -5 2 -10 266.918 64.8233 6
 5 3 -13 27.8601 34.8229 8
 -5 3 13 10.0145 43.6314 1
 5 3 -13 -30.1497 42.1327 5
 5 3 -13 -10.0108 45.9746 4
 5 3 -12 785.335 88.8114 5
 5 3 -12 895.195 89.1908 8
 5 3 -12 726.414 86.7912 4
 -5 3 11 328.904 63.5925 1
 5 3 -11 479.176 69.72 5
 5 3 -11 513.227 67.0129 8
 5 3 -11 416.632 61.8346 7
 5 3 -11 497.112 70.9267 4
 5 3 -11 525.357 68.2921 6
 5 3 -10 1213.59 100.045 5
 -5 3 10 1163.93 101.985 1
 5 3 -10 1255.4 98.1358 8
 5 3 -10 1268.72 104.228 4
 5 3 -10 1120.36 93.8694 7
 5 3 -10 1296.57 100.764 6
 5 3 -9 2113.6 129.696 5
 -5 3 9 1955.14 126.272 1
 5 3 -9 2085.5 128.626 8
 5 3 -9 1804.85 121.584 7
 5 3 -9 1840.52 123.821 4
 5 3 -9 1954.54 124.694 6
 5 3 -8 1600.56 110.754 5
 -5 3 8 1675.96 112.401 1
 5 3 -8 1701.71 111.224 8
 5 3 -8 1587.75 109.364 7
 5 3 -8 1785.32 114.874 4
 5 3 -8 1615.21 109.088 6
 5 3 -7 5001.53 213.173 5
 -5 3 7 4130.86 203.247 1
 5 3 -7 4212.94 203.313 8
 5 3 -7 4604.5 206.549 7
 5 3 -7 4306.83 205.559 4
 5 3 -7 4439.11 204.402 6
 5 3 -6 2017.54 117.7 5
 -5 3 6 2085.75 118.263 1
 5 3 -6 2055.72 118.569 8
 5 3 -6 1753.62 113.965 7
 5 3 -6 1914.39 115.718 4
 5 3 -6 1885.72 115.262 6
 5 3 -5 1324.58 90.4927 5
 -5 3 5 1229.07 88.518 1
 5 3 -5 1348.31 90.8905 8
 5 3 -5 1215.57 86.0615 7
 5 3 -5 1234.09 88.9385 4
 5 3 -5 1232.62 87.7772 6
 -5 3 4 77.03 29.3079 1
 5 3 -4 52.9454 29.7239 5
 5 3 -4 86.8088 33.381 7
 5 3 -4 106.113 33.9993 4
 5 3 -4 122.32 33.596 6
 -5 3 3 1188.59 80.5829 1
 5 3 -3 1156.4 83.7471 5
 5 3 -3 1394.74 89.3581 7
 5 3 -3 1161.93 85.2982 4
 5 3 -3 1206.48 84.4889 6
 5 3 -2 61.7893 28.3268 5
 5 3 -2 62.9896 28.8744 7
 5 3 -2 73.3073 28.8266 4
 5 3 -2 45.4445 30.1872 6
 5 3 -1 512.736 59.0455 7
 5 3 -1 466.332 56.3569 6
 5 3 0 5064.62 220.269 7
 5 3 0 5143.26 220.924 6
 -5 3 -1 2694.78 128.524 7
 5 3 1 2859.91 145.557 7
 -5 3 -1 2864.04 131.093 6
 5 3 1 2630.24 141.119 6
 -5 3 -1 2768.99 129.248 2
 -5 3 -2 -4.88234 25.5665 2
 -5 3 -2 4.92668 24.4401 7
 -5 3 -2 24.516 23.2579 6
 -5 3 -3 1213.11 83.2455 6
 -5 3 -3 1067.32 81.8484 2
 -5 3 -4 2470.06 132.587 7
 -5 3 -4 2574.3 133.825 6
 -5 3 -4 2339.26 131.884 2
 -5 3 -5 3721.24 182.233 7
 -5 3 -5 3769.14 182.278 6
 -5 3 -5 3614.99 180.395 2
 -5 3 -6 163.376 43.3705 7
 -5 3 -6 118.361 41.848 6
 -5 3 -7 275.192 57.0506 7
 -5 3 -7 274.222 55.6347 6
 -5 3 -8 402.957 68.4472 7
 -5 3 -8 506.434 73.1637 6
 -5 3 -9 451.946 72.8946 7
 -5 3 -9 440.876 71.3435 6
 -5 3 -10 260.733 58.3541 7
 -5 3 -10 309.995 61.1386 6
 -5 4 13 10.2064 38.273 1
 5 4 -13 40.8702 46.9251 5
 5 4 -13 9.61396 41.1045 7
 5 4 -13 -10.1764 49.0171 4
 5 4 -13 9.63951 40.4135 6
 -5 4 12 -9.71675 37.3424 1
 5 4 -12 19.3194 42.8642 5
 5 4 -12 9.22672 40.9435 7
 5 4 -12 77.1792 45.7646 4
 5 4 -12 37.105 42.6075 6
 -5 4 11 836.356 89.2517 1
 5 4 -11 656.849 78.1056 5
 5 4 -11 645.605 76.2957 8
 5 4 -11 571.112 76.1722 7
 5 4 -11 767.852 84.0406 4
 5 4 -11 715.355 82.397 6
 -5 4 10 277.493 52.4561 1
 5 4 -10 248.627 52.3693 5
 5 4 -10 223.461 49.7339 8
 5 4 -10 208.776 54.2974 7
 5 4 -10 232.407 53.0679 4
 5 4 -10 209.728 51.2671 6
 -5 4 9 602.912 72.7739 1
 5 4 -9 578.364 70.5434 5
 5 4 -9 643.658 71.7391 8
 5 4 -9 588.916 70.2528 7
 5 4 -9 595.935 69.7357 4
 5 4 -9 512.017 67.9997 6
 -5 4 8 367.311 53.9157 1
 5 4 -8 368.276 56.9758 5
 5 4 -8 382.188 53.763 8
 5 4 -8 415.392 61.3012 7
 5 4 -8 504.845 62.7743 4
 5 4 -8 287.747 55.6002 6
 5 4 -7 2823.47 154.042 5
 -5 4 7 2957.52 156.791 1
 5 4 -7 3030.83 155.889 8
 5 4 -7 2888.32 156.585 7
 5 4 -7 2859.71 154.206 4
 5 4 -7 2738.77 153.264 6
 5 4 -6 2488.73 137.618 5
 -5 4 6 2615 141.664 1
 5 4 -6 2325.43 136.044 8
 5 4 -6 2465.69 138.685 7
 5 4 -6 2434.49 137.616 4
 5 4 -6 2522.42 139.263 6
 -5 4 5 864.921 72.9904 1
 5 4 -5 689.45 70.5211 5
 5 4 -5 855.972 72.7985 8
 5 4 -5 889.649 75.4594 7
 5 4 -5 644.687 68.6651 4
 5 4 -5 684.509 68.6888 6
 -5 4 4 2618.06 137.438 1
 5 4 -4 2507.18 137.071 5
 5 4 -4 2427.23 135.726 7
 5 4 -4 2726.04 141.241 4
 5 4 -4 2580.64 138.063 6
 -5 4 3 5015.52 227.428 1
 5 4 -3 5319.39 232.011 5
 5 4 -3 5643.65 235.921 7
 5 4 -3 5710.76 236.376 4
 5 4 -3 5253 231.795 6
 5 4 -2 216.387 42.4512 5
 5 4 -2 297.213 48.6418 7
 5 4 -2 319.816 46.3511 4
 5 4 -2 264.605 46.383 6
 5 4 -1 5054.42 224.468 7
 5 4 -1 5167.45 224.784 6
 5 4 0 1338.84 97.005 7
 5 4 0 1481.1 98.4336 6
 5 4 1 6.41406 26.3482 7
 5 4 1 -18.8941 26.4051 6
 5 4 2 534.835 61.0757 7
 5 4 2 434.279 57.5139 6
 -5 4 -3 115.77 36.3117 2
 -5 4 -3 188.707 35.6553 7
 -5 4 -3 82.3873 29.0231 6
 -5 4 -4 333.198 49.7867 7
 -5 4 -4 460.369 55.3468 6
 -5 4 -5 1312.42 93.4521 7
 -5 4 -5 1129.34 89.5235 6
 -5 4 -6 44.953 31.4549 7
 -5 4 -6 59.8157 31.3912 6
 -5 4 -7 122.558 46.1336 7
 -5 4 -7 130.474 45.0177 6
 -5 4 -8 495.322 73.6788 7
 -5 4 -8 511.887 73.5248 6
 -5 4 -9 826.528 90.1394 7
 -5 4 -9 758.57 86.7615 6
 -5 4 -10 414.007 72.5549 6
 -5 5 12 358.769 64.7515 1
 5 5 -12 402.736 67.9711 5
 5 5 -12 352.856 64.7722 7
 5 5 -12 412.022 68.3818 4
 5 5 -12 354.66 62.9606 6
 -5 5 11 304.076 59.3933 1
 5 5 -11 400.716 66.5915 5
 5 5 -11 262.804 57.6205 7
 5 5 -11 326.806 63.9041 4
 5 5 -11 292.162 59.9711 6
 -5 5 10 54.1781 40.8249 1
 5 5 -10 88.0446 40.488 5
 5 5 -10 44.763 43.8195 7
 5 5 -10 106.087 39.2791 4
 5 5 -10 26.9702 40.6463 6
 -5 5 9 196.884 48.0887 1
 5 5 -9 215.609 49.6301 5
 5 5 -9 248.407 56.956 7
 5 5 -9 207.791 49.251 4
 5 5 -9 198.152 57.2809 6
 -5 5 8 154.031 49.2642 1
 5 5 -8 179.507 42.1913 5
 5 5 -8 184.08 41.7081 8
 5 5 -8 89.6447 41.2945 7
 5 5 -8 179.962 42.2968 4
 5 5 -8 139.18 46.8187 6
 -5 5 7 146.012 44.2965 1
 5 5 -7 132.578 42.466 5
 5 5 -7 106.497 34.8666 8
 5 5 -7 93.0215 47.4322 7
 5 5 -7 110.791 40.7431 4
 5 5 -7 38.8691 39.2465 6
 -5 5 6 497.339 60.9133 1
 5 5 -6 491.409 61.8003 5
 5 5 -6 543.553 64.1195 8
 5 5 -6 450.348 61.1363 7
 5 5 -6 443.248 60.2187 4
 5 5 -6 569.89 67.2701 6
 -5 5 5 258.355 49.0253 1
 5 5 -5 228.037 44.3861 8
 5 5 -5 196.142 44.7465 5
 5 5 -5 346.25 54.6471 7
 5 5 -5 406.631 55.1665 4
 5 5 -5 234.141 50.4981 6
 -5 5 4 11208.8 434.851 1
 5 5 -4 11484.6 435.043 5
 5 5 -4 11443.9 437.544 7
 5 5 -4 11661.9 436.408 4
 5 5 -4 11418.4 437.7 6
 5 5 -3 1205 91.6129 5
 5 5 -3 1200.63 92.1379 7
 5 5 -3 1309.56 93.6298 4
 5 5 -3 1242.35 96.0345 6
 5 5 -2 1692.1 109.365 5
 5 5 -2 1650.97 108.967 7
 5 5 -2 1797.1 111.613 4
 5 5 -2 1809.28 113.419 6
 5 5 -1 418.332 55.3135 7
 5 5 -1 488.311 57.9731 6
 5 5 0 549.574 63.8026 7
 5 5 0 503.972 60.4231 6
 5 5 1 3488.25 173.14 7
 5 5 1 3299.07 169.457 6
 5 5 2 1160.05 90.2596 7
 5 5 2 1152.64 89.8123 6
 5 5 3 57.2248 34.4958 7
 5 5 3 49.1078 34.8411 6
 5 5 4 1872.85 124.355 7
 5 5 4 1866.04 122.678 6
 -5 5 -6 151.364 42.5427 7
 -5 5 -6 257.08 52.2593 6
 -5 5 -7 49.503 36.0591 7
 -5 5 -7 148.509 43.8449 6
 -5 5 -8 749.777 83.078 7
 -5 5 -8 749.611 82.3844 6
 -5 5 -9 76.5302 48.9179 7
 -5 5 -9 153.17 54.5549 6
 5 6 -12 9.92137 40.7698 5
 5 6 -12 -69.3572 45.5178 4
 -5 6 11 9.79868 33.8979 1
 5 6 -11 75.7421 41.2681 5
 5 6 -11 29.8131 43.3147 7
 5 6 -11 37.9446 41.3482 4
 5 6 -11 59.8703 45.8425 6
 -5 6 10 -37.558 43.8608 1
 5 6 -10 -26.9824 37.7377 5
 5 6 -10 -85.7136 49.249 7
 5 6 -10 -27.0927 37.1274 4
 5 6 -10 -28.6894 40.9148 6
 -5 6 9 286.964 60.3137 1
 5 6 -9 331.93 59.4885 5
 5 6 -9 319.813 63.3147 7
 5 6 -9 264.637 55.6658 4
 5 6 -9 183.639 55.1317 6
 -5 6 8 437.57 64.1509 1
 5 6 -8 488.672 68.7809 7
 5 6 -8 436.193 64.2885 4
 5 6 -8 403.042 62.912 6
 -5 6 7 303.367 55.0345 1
 5 6 -7 405.408 58.2181 5
 5 6 -7 333.58 60.965 7
 5 6 -7 329.728 53.1684 4
 5 6 -7 200.971 53.9304 6
 -5 6 6 2346.17 146.555 1
 5 6 -6 2655.04 147.458 5
 5 6 -6 2589.42 144.445 8
 5 6 -6 2479.56 150.195 7
 5 6 -6 2695.78 149.521 4
 5 6 -6 2582.66 152.283 6
 -5 6 5 1281.23 100.918 1
 5 6 -5 1425 100.182 5
 5 6 -5 1375.37 100.439 8
 5 6 -5 1265.87 100.8 7
 5 6 -5 1294.78 97.0399 4
 5 6 -5 1287.4 101.817 6
 5 6 -4 2095.48 126.867 5
 5 6 -4 2095.11 130.586 7
 5 6 -4 2289.56 131.057 4
 5 6 -4 2051.82 130.087 6
 5 6 -3 480.673 61.4087 5
 5 6 -3 537.89 64.5178 7
 5 6 -3 580.346 65.7087 4
 5 6 -3 431.662 58.8161 6
 5 6 -2 474.363 59.4514 5
 5 6 -2 431.573 58.3826 7
 5 6 -2 531.409 58.6458 4
 5 6 -2 512.508 61.6729 6
 5 6 -1 2749.05 149.445 5
 5 6 -1 2924.78 154.159 7
 5 6 -1 2610.59 146.55 4
 5 6 -1 2784.01 152.001 6
 5 6 0 1719.73 111.356 7
 5 6 0 1441.65 103.83 6
 5 6 1 415.45 59.3012 7
 5 6 1 382.677 58.397 6
 5 6 2 283.815 52.6815 7
 5 6 2 200.848 46.8151 6
 5 6 3 74.3476 32.5199 7
 5 6 3 109.776 35.8961 6
 -5 7 10 -9.72586 40.7773 1
 5 7 -10 70.2512 43.7274 7
 5 7 -10 10.0694 39.6037 6
 -5 7 9 65.5987 41.5781 1
 5 7 -9 19.3101 39.6596 7
 5 7 -9 -38.7906 41.4611 6
 -5 7 8 99.3287 44.314 1
 5 7 -8 55.6165 46.7902 7
 5 7 -7 124.526 52.2957 7
 5 7 -7 125.066 47.472 6
 -5 7 7 61.0208 38.7977 1
 5 7 -6 238.308 49.2557 7
 5 7 -6 128.071 45.636 6
 5 7 -5 237.006 56.4827 7
 5 7 -5 188.441 47.0641 6
 5 7 -4 445.356 56.9607 5
 5 7 -4 369.981 60.0232 7
 5 7 -4 371.625 60.6415 6
 5 7 -3 1327.06 97.5016 5
 5 7 -3 1384.97 102.789 7
 5 7 -3 1113.5 94.2794 6
 5 7 -2 314.28 54.7492 7
 5 7 -2 262.822 53.4739 6
 5 7 -1 155.808 44.72 7
 5 7 -1 164.148 42.2775 6
 5 7 0 178.546 45.4275 7
 5 7 0 223.105 49.1141 6
 5 7 1 14.9331 31.9302 7
 5 7 1 29.6781 29.8436 6
 5 8 -9 161.534 54.455 7
 5 8 -9 233.233 55.3507 6
 -5 8 9 116.881 46.4933 1
 5 8 -8 29.2604 41.7676 7
 5 8 -8 97.9968 46.5418 6
 -5 8 8 104.125 44.2548 1
 5 8 -7 281.258 62.2932 7
 5 8 -7 178.856 51.024 6
 5 8 -6 126.287 48.4599 7
 5 8 -6 9.06019 38.0222 6
 5 8 -5 225.112 56.1877 7
 5 8 -5 208.386 52.9503 6
 5 8 -4 401.349 62.8774 7
 5 8 -4 293.691 57.7698 6
 5 8 -3 283.171 53.1681 7
 5 8 -3 390.3 58.8089 6
 5 8 -2 189.55 45.7705 7
 5 8 -2 174.376 47.352 6
 5 9 -7 421.198 73.5977 7
 5 9 -7 364.179 67.692 6
 5 9 -6 491.243 74.6342 7
 5 9 -6 351.007 67.38 6
 5 9 -5 -9.10304 40.3882 7
 5 9 -5 9.14264 37.5549 6
 6 -9 -6 365.704 70.9826 3
 6 -9 -6 283.189 65.9405 1
 6 -9 -5 580.074 84.4994 1
 -6 -9 5 596.602 80.6781 3
 6 -9 -5 683.123 86.5242 3
 6 -9 -4 545.084 78.2241 1
 -6 -9 4 699.324 83.4783 3
 -6 -9 3 1198.67 106.001 3
 6 -9 -3 1280.82 114.412 1
 -6 -9 2 292.748 57.4344 3
 6 -9 -2 206.993 54.7691 1
 -6 -9 1 383.406 62.6382 3
 6 -9 -1 466.762 72.3906 1
 6 -9 0 462.8 74.5342 1
 6 -9 1 132.474 55.5345 1
 -6 -8 8 109.232 50.1243 3
 6 -8 -8 142.675 45.4004 3
 6 -8 -8 130.046 57.035 1
 -6 -8 7 87.0644 45.8954 3
 6 -8 -7 49.2713 46.015 3
 6 -8 -7 -9.79716 34.8667 1
 6 -8 -6 577.247 74.5041 1
 -6 -8 6 461.405 72.1432 3
 6 -8 -6 539.011 75.8248 3
 -6 -8 5 1126.34 101.489 3
 6 -8 -5 1080.89 102.195 3
 6 -8 -5 1075.51 105.987 1
 -6 -8 4 222.999 55.6844 3
 6 -8 -4 316.633 57.0149 1
 6 -8 -4 304.368 56.7183 3
 6 -8 -3 119.914 45.8937 1
 -6 -8 3 104.115 41.3053 3
 -6 -8 2 210.997 49.5645 3
 6 -8 -2 248.268 54.4566 1
 -6 -8 1 261.994 51.1275 3
 6 -8 -1 480.512 69.2734 1
 6 -8 0 56.0048 45.6704 1
 6 -8 1 161.718 51.333 1
 6 -8 2 86.6375 46.4494 1
 6 -8 3 9.78962 44.2043 1
 6 -8 4 79.7889 43.5279 1
 -6 -7 10 354.549 62.278 3
 -6 -7 9 19.2875 37.0555 3
 6 -7 -9 -10.0612 44.6398 3
 -6 -7 8 509.522 73.0496 3
 6 -7 -8 513.404 78.7629 3
 -6 -7 7 402.086 66.4025 3
 6 -7 -7 296.339 62.6244 1
 6 -7 -7 351.811 60.1545 3
 6 -7 -6 36.1037 42.8129 1
 -6 -7 6 -17.6804 39.9181 3
 6 -7 -6 35.3543 41.2641 3
 6 -7 -5 592.128 72.8523 1
 -6 -7 5 589.435 73.064 3
 6 -7 -5 487.157 67.278 3
 -6 -7 4 107.175 40.5999 3
 6 -7 -4 151.174 45.5084 3
 6 -7 -4 225.09 50.5265 1
 6 -7 -3 341.916 56.4317 1
 -6 -7 3 295.449 52.8398 3
 6 -7 -2 636.167 77.5307 1
 -6 -7 2 687.036 75.3908 3
 -6 -7 1 1701.93 115.883 3
 6 -7 -1 1738.77 125.112 1
 -6 -7 0 657.563 75.9261 5
 6 -7 0 779.989 83.2948 1
 -6 -7 0 552.249 70.5595 4
 -6 -7 -1 228.334 51.3554 5
 6 -7 1 113.421 43.5005 1
 -6 -7 -1 97.719 42.8653 4
 6 -7 2 88.9098 43.6387 1
 -6 -7 -2 107.776 40.1172 5
 -6 -7 -2 166.02 43.0774 4
 -6 -7 -3 8.50897 34.2171 5
 -6 -7 -3 -8.5356 37.1891 4
 6 -7 3 36.2531 43.6555 1
 -6 -7 -4 52.7327 40.486 5
 -6 -7 -4 153.824 46.415 8
 -6 -7 -4 167.961 47.566 4
 6 -7 4 55.5676 39.7214 1
 -6 -7 -5 39.8242 39.1967 8
 6 -7 5 76.2137 42.3065 1
 6 -7 6 582.225 78.5552 1
 -6 -6 11 318.834 61.2807 3
 6 -6 -11 474.952 77.4068 3
 -6 -6 10 330.807 63.1778 3
 6 -6 -10 289.802 60.6476 3
 -6 -6 9 652.163 83.3208 3
 6 -6 -9 817.01 92.3328 3
 -6 -6 8 240.43 55.9999 3
 6 -6 -8 285.143 58.3164 3
 -6 -6 7 396.73 60.3428 3
 6 -6 -7 219.153 49.0748 3
 -6 -6 6 836.663 82.778 3
 6 -6 -6 732.575 80.1663 3
 6 -6 -6 791.626 82.5325 1
 -6 -6 5 55.652 33.9976 3
 6 -6 -5 8.18338 32.9141 1
 6 -6 -5 7.85434 30.1872 3
 6 -6 -4 192.041 47.3357 1
 -6 -6 4 221.092 50.2757 3
 6 -6 -4 154.91 42.3649 3
 -6 -6 3 555.288 65.5763 3
 6 -6 -3 600.344 64.3296 3
 6 -6 -3 525.364 69.0964 1
 6 -6 -2 2559.93 149.539 1
 -6 -6 2 2495.38 142.312 3
 -6 -6 1 40.4985 31.0284 3
 6 -6 -1 46.3625 37.8031 1
 -6 -6 0 7.72188 31.7216 5
 -6 -6 0 15.3967 32.916 4
 6 -6 0 15.5889 28.4904 1
 -6 -6 -1 124.656 40.4449 5
 6 -6 1 110.816 45.1707 1
 -6 -6 -1 117.006 38.8762 4
 -6 -6 -2 1376.76 110.094 4
 6 -6 2 1557.97 113.574 1
 -6 -6 -2 1682.84 116.494 5
 -6 -6 -3 164.71 45.6518 5
 -6 -6 -3 174.044 48.9893 4
 6 -6 3 215.622 53.7263 1
 -6 -6 -4 1007.45 96.5272 5
 -6 -6 -4 981.879 98.9245 8
 -6 -6 -4 1024.66 97.7839 4
 -6 -6 -5 72.0661 40.0995 5
 -6 -6 -5 100.092 51.2833 4
 6 -6 5 158.174 44.3273 1
 -6 -6 -5 84.9458 42.002 8
 -6 -6 -6 272.774 55.6166 5
 -6 -6 -6 205.932 55.5672 8
 6 -6 6 206.908 47.5853 1
 -6 -6 -6 171.181 49.6145 4
 -6 -6 -7 -19.6291 38.6105 5
 -6 -6 -7 -20.365 40.9568 8
 -6 -6 -7 -39.799 43.36 4
 -6 -5 11 65.4233 41.5228 3
 6 -5 -11 69.645 42.5915 3
 -6 -5 10 217.455 49.0688 3
 6 -5 -10 182.101 54.2907 3
 -6 -5 9 377 62.8301 3
 6 -5 -9 284.379 61.472 3
 6 -5 -8 847.332 88.2497 3
 -6 -5 8 759.064 83.6909 3
 -6 -5 7 16.1919 40.1599 3
 6 -5 -7 -16.5646 38.6652 3
 6 -5 -6 1766.88 120.383 3
 -6 -5 6 1748.67 120.709 3
 6 -5 -5 2557.97 144.83 3
 -6 -5 5 2408.49 143.123 3
 6 -5 -4 314.314 51.6135 1
 -6 -5 4 394.573 53.8933 3
 6 -5 -4 447.616 58.1476 3
 6 -5 -3 164.54 41.4683 1
 -6 -5 3 127.319 39.6916 3
 6 -5 -3 211.048 40.1258 3
 6 -5 -2 1614.78 107.865 1
 -6 -5 2 1478.55 100.347 3
 -6 -5 1 1210.47 97.5256 4
 6 -5 -1 1346.15 96.4768 1
 -6 -5 1 1343.67 102.143 5
 -6 -5 1 1251.09 88.6134 3
 -6 -5 0 2170.94 134.032 4
 6 -5 0 2204.48 131.556 1
 -6 -5 0 2360.96 138.442 5
 -6 -5 -1 3639.86 185.168 4
 6 -5 1 3764.54 184.101 1
 -6 -5 -1 3513.27 183.137 5
 -6 -5 -2 564.973 71.6668 5
 6 -5 2 585.662 67.7927 1
 -6 -5 -2 483.914 66.3852 4
 -6 -5 -3 1284.29 102.998 5
 -6 -5 -3 1278.58 104.963 8
 -6 -5 -3 1415.72 108.031 4
 6 -5 3 1064.73 92.1361 1
 -6 -5 -4 125.411 42.734 5
 -6 -5 -4 59.1127 35.5142 4
 6 -5 4 115.783 44.4588 1
 -6 -5 -4 68.1157 41.1072 8
 -6 -5 -5 245.283 53.5881 5
 -6 -5 -5 266.254 53.7632 8
 -6 -5 -5 272.605 55.5761 7
 -6 -5 -5 266.405 55.3172 4
 6 -5 5 264.605 55.2223 1
 -6 -5 -5 209.467 50.3388 6
 -6 -5 -5 271.457 56.9922 2
 -6 -5 -6 36.7889 40.8062 5
 -6 -5 -6 -18.495 35.5324 8
 -6 -5 -6 -9.30925 38.2393 4
 -6 -5 -7 221.544 56.9094 5
 -6 -5 -7 163.732 55.7456 8
 -6 -5 -7 234.247 62.6651 4
 -6 -5 -8 181.442 55.0321 5
 -6 -5 -8 180.139 51.9997 8
 -6 -5 -8 143.162 48.793 4
 -6 -4 12 239.95 57.1374 3
 6 -4 -12 133.225 48.8549 8
 6 -4 -12 168.608 53.5412 3
 -6 -4 11 -8.98653 31.9711 3
 6 -4 -11 17.8729 30.8974 8
 6 -4 -11 57.3178 46.0154 3
 -6 -4 10 445.721 64.6129 3
 6 -4 -10 439.855 60.725 8
 6 -4 -10 448.705 70.1239 3
 -6 -4 9 787.619 83.9264 3
 6 -4 -9 845.593 88.5192 3
 -6 -4 8 449.767 61.8137 3
 6 -4 -8 421.497 60.0199 3
 -6 -4 7 529.268 67.4288 3
 6 -4 -7 530.499 65.31 3
 -6 -4 6 996.313 85.4939 3
 6 -4 -6 937.918 83.3847 3
 -6 -4 5 124.34 34.9535 3
 6 -4 -5 109.764 37.022 3
 -6 -4 4 78.5304 37.3312 3
 6 -4 -4 101.996 32.2045 3
 -6 -4 3 253.428 43.9276 3
 6 -4 -3 259.849 42.6278 3
 6 -4 -3 315.711 48.2028 1
 6 -4 -2 3244.89 162.974 1
 -6 -4 2 3352.24 160.507 3
 -6 -4 1 557.017 68.2679 5
 6 -4 -1 672.67 67.5014 1
 -6 -4 1 689.515 62.0393 3
 -6 -4 1 699.569 71.1903 4
 -6 -4 0 876.84 82.1641 5
 -6 -4 0 1139.95 89.067 4
 6 -4 0 1008.7 79.9366 1
 -6 -4 -1 330.937 54.6598 5
 6 -4 1 354.416 51.3395 1
 -6 -4 -1 389.123 58.6297 4
 -6 -4 -2 671.694 72.02 5
 6 -4 2 763.834 71.5855 1
 -6 -4 -2 749.909 75.0471 4
 -6 -4 -3 628.607 71.5656 5
 -6 -4 -3 701.065 74.2713 8
 -6 -4 -3 651.109 73.0733 7
 -6 -4 -3 859.399 82.8074 4
 -6 -4 -3 925.398 85.386 6
 -6 -4 -3 844.2 78.7964 2
 6 -4 3 609.537 65.7325 1
 -6 -4 -4 353.849 56.6155 5
 -6 -4 -4 374.713 58.439 7
 -6 -4 -4 448.342 62.7932 4
 -6 -4 -4 364.779 56.652 8
 -6 -4 -4 458.287 63.0686 6
 -6 -4 -4 391.448 60.2082 2
 -6 -4 -5 -16.9417 33.3145 5
 -6 -4 -5 24.8326 37.3761 8
 -6 -4 -5 16.3451 31.4024 7
 -6 -4 -5 8.57881 32.9634 4
 -6 -4 -5 -16.494 33.1632 6
 -6 -4 -5 39.3402 34.2802 2
 -6 -4 -6 71.3525 43.0563 5
 -6 -4 -6 95.1819 39.1763 8
 -6 -4 -6 51.2864 37.352 7
 -6 -4 -6 99.4063 46.1801 4
 -6 -4 -6 146.422 46.8909 6
 -6 -4 -6 98.8329 42.6668 2
 -6 -4 -7 526.507 76.5866 5
 -6 -4 -7 560.547 76.4637 8
 -6 -4 -7 472.566 68.468 7
 -6 -4 -7 600.845 80.4691 4
 -6 -4 -7 611.722 76.4724 6
 -6 -4 -7 395.902 65.8355 2
 -6 -4 -8 277.609 60.2823 5
 -6 -4 -8 169.893 50.4533 8
 -6 -4 -8 170.161 53.4586 4
 -6 -4 -9 49.0202 40.3021 8
 6 -3 -13 10.137 43.3432 8
 -6 -3 13 -37.401 44.353 1
 6 -3 -13 -19.7637 38.8672 3
 -6 -3 12 596.757 79.4103 3
 6 -3 -12 526.116 75.7117 8
 6 -3 -12 584.109 77.0503 3
 -6 -3 11 262.321 56.5344 3
 6 -3 -11 349.259 61.1826 8
 6 -3 -11 230.23 57.4296 3
 -6 -3 10 58.8393 35.2763 3
 6 -3 -10 41.72 32.8547 8
 6 -3 -10 52.8129 38.3834 3
 -6 -3 9 394.132 59.3207 3
 6 -3 -9 362.756 57.3627 8
 6 -3 -9 250.712 49.1456 3
 -6 -3 8 698.616 73.4793 3
 6 -3 -8 640.504 66.9354 8
 6 -3 -8 521.1 67.1207 3
 -6 -3 7 145.667 40.1979 3
 6 -3 -7 84.7674 32.5335 8
 6 -3 -7 111.35 39.0275 3
 -6 -3 6 888.664 76.6752 3
 6 -3 -6 701.213 71.5129 3
 6 -3 -6 803.347 70.3411 8
 -6 -3 5 414.929 55.2841 3
 6 -3 -5 316.432 47.9627 3
 6 -3 -4 1444.97 95.4776 3
 -6 -3 4 1425.25 94.7805 3
 6 -3 -3 1634.21 98.6611 3
 6 -3 -3 1713.15 102.647 1
 -6 -3 3 1490.77 96.5782 3
 6 -3 -2 793.679 63.8036 3
 6 -3 -2 880.584 69.4019 1
 -6 -3 2 866.335 67.5665 3
 -6 -3 1 174.279 42.8419 5
 -6 -3 1 258.447 38.376 3
 6 -3 -1 214.103 36.0384 1
 -6 -3 1 219.107 46.061 4
 -6 -3 0 252.927 47.7311 5
 -6 -3 0 240.441 44.9449 4
 6 -3 0 240.333 39.6329 1
 -6 -3 -1 764.682 74.5332 5
 6 -3 1 737.453 64.6462 1
 -6 -3 -1 842.988 76.3974 4
 -6 -3 -2 298.878 52.146 5
 -6 -3 -2 277.998 52.4657 7
 -6 -3 -2 441.509 62.1893 4
 -6 -3 -2 330.372 54.3354 6
 -6 -3 -2 287.576 50.8728 2
 -6 -3 -3 696.53 69.2369 8
 -6 -3 -3 745.586 74.2246 5
 -6 -3 -3 683.221 74.0949 7
 -6 -3 -3 746.289 75.2111 4
 -6 -3 -3 690.339 75.0481 6
 -6 -3 -3 700.577 71.673 2
 -6 -3 -4 169.519 44.8755 5
 -6 -3 -4 91.8333 42.1979 7
 -6 -3 -4 101.44 40.458 4
 -6 -3 -4 100.142 44.3953 6
 -6 -3 -4 58.6794 38.5402 8
 -6 -3 -4 95.7302 40.6141 2
 -6 -3 -5 276.828 56.197 5
 -6 -3 -5 306.796 51.8428 8
 -6 -3 -5 249.193 53.4157 7
 -6 -3 -5 404.441 62.1762 4
 -6 -3 -5 291.661 55.512 6
 -6 -3 -5 217.693 49.1876 2
 -6 -3 -6 -8.64716 35.5226 5
 -6 -3 -6 16.0948 33.7408 8
 -6 -3 -6 33.8293 36.1613 7
 -6 -3 -6 -17.4585 32.7359 4
 -6 -3 -6 34.1422 32.7999 6
 -6 -3 -6 49.1984 38.8951 2
 -6 -3 -7 165.041 46.3297 5
 -6 -3 -7 134.874 42.6282 8
 -6 -3 -7 168.91 52.357 7
 -6 -3 -7 83.1636 41.2251 4
 -6 -3 -7 197.544 53.4126 6
 -6 -3 -7 103.506 44.2042 2
 -6 -3 -8 1067.58 105.426 5
 -6 -3 -8 1059.79 98.0556 8
 -6 -3 -8 1079.78 102.155 7
 -6 -3 -8 1132.56 108.804 4
 -6 -3 -8 875.672 93.3794 6
 -6 -3 -8 1112.71 101.876 2
 -6 -3 -9 459.794 76.2698 5
 -6 -3 -9 505.387 77.9923 7
 -6 -3 -9 565.343 81.8617 4
 -6 -3 -9 481.806 75.7933 6
 -6 -3 -9 425.317 73.8345 2
 6 -2 -13 50.6137 48.046 8
 -6 -2 13 47.2181 43.406 1
 6 -2 -13 67.5123 42.8276 3
 -6 -2 12 17.8143 31.6867 3
 6 -2 -12 -9.56244 37.6079 8
 -6 -2 12 43.9783 36.8755 1
 6 -2 -12 -18.6613 42.8519 3
 -6 -2 11 188.6 48.328 3
 6 -2 -11 295.975 54.7999 8
 -6 -2 11 203.057 52.0183 1
 6 -2 -11 349.466 63.3537 3
 -6 -2 10 106.648 44.3124 3
 -6 -2 10 111.591 42.5853 1
 6 -2 -10 153.786 42.0532 3
 -6 -2 9 93.5651 41.5611 3
 6 -2 -9 97.1748 41.5148 3
 -6 -2 8 428.895 57.6714 3
 6 -2 -8 360.409 56.2763 8
 6 -2 -8 305.77 56.7123 3
 6 -2 -7 2142.17 127.053 3
 6 -2 -7 1918.29 118.872 8
 -6 -2 7 1997.1 123.559 3
 6 -2 -6 6846.38 282.35 3
 6 -2 -6 6717.29 276.135 8
 -6 -2 6 6560.48 279.611 3
 6 -2 -5 10094.3 384.482 3
 6 -2 -5 9729.91 376.481 8
 -6 -2 5 10197.9 384.469 3
 6 -2 -4 4534.41 203.697 3
 6 -2 -4 4552.74 198.866 8
 -6 -2 4 4937.09 208.415 3
 6 -2 -3 3523.83 161.223 3
 6 -2 -3 3481.85 156.866 8
 -6 -2 3 3440.65 161.419 3
 -6 -2 2 296.292 39.9214 3
 6 -2 -2 221.343 36.0512 3
 6 -2 -2 265.342 39.086 1
 -6 -2 1 1954.22 114.61 4
 6 -2 -1 1847.11 102.323 1
 -6 -2 1 1877.35 101.193 3
 -6 -2 1 1954.46 114.509 5
 -6 -2 0 346.245 48.5168 5
 -6 -2 0 316.945 49.9965 4
 6 -2 0 372.424 44.8715 1
 -6 -2 -1 1396.81 95.1889 4
 -6 -2 -1 1421.47 95.5426 7
 -6 -2 -1 1359.51 93.9198 6
 -6 -2 -1 1287.05 91.4471 2
 -6 -2 -1 1180.13 90.6317 5
 -6 -2 -2 1530.2 103.467 5
 -6 -2 -2 1571.89 103.971 4
 -6 -2 -2 1500.72 102.625 7
 -6 -2 -2 1364.39 101.562 6
 -6 -2 -2 1493.93 102.681 2
 -6 -2 -3 5515.81 243.873 5
 -6 -2 -3 5371.99 243.546 4
 -6 -2 -3 5657.6 246.782 7
 -6 -2 -3 5441.56 244.105 6
 -6 -2 -3 5471.09 242.415 2
 -6 -2 -4 1888.69 119.92 5
 -6 -2 -4 1541.48 108.393 8
 -6 -2 -4 1958.04 122.422 4
 -6 -2 -4 1642.6 116.303 7
 -6 -2 -4 1836.82 120.062 6
 -6 -2 -4 1821.91 119.335 2
 -6 -2 -5 1409.57 106.106 5
 -6 -2 -5 1467.75 102.791 8
 -6 -2 -5 1549.32 110.962 4
 -6 -2 -5 1264.31 103.349 7
 -6 -2 -5 1293.35 106.137 6
 -6 -2 -5 1418.67 106.455 2
 -6 -2 -6 1744.52 122.992 5
 -6 -2 -6 1595.58 111.477 8
 -6 -2 -6 1858.92 125.55 4
 -6 -2 -6 1689.96 121.408 7
 -6 -2 -6 1740.27 123.986 6
 -6 -2 -6 1675.26 120.459 2
 -6 -2 -7 337.875 59.2038 5
 -6 -2 -7 345.06 62.985 7
 -6 -2 -7 304.102 59.0692 4
 -6 -2 -7 384.234 61.8028 6
 -6 -2 -7 309.919 61.3346 2
 -6 -2 -8 207.737 54.6887 5
 -6 -2 -8 177.17 51.7035 7
 -6 -2 -8 275.279 61.4993 4
 -6 -2 -8 188.282 54.526 6
 -6 -2 -8 217.823 58.8341 2
 -6 -2 -9 718.947 88.1184 5
 -6 -2 -9 1085.94 100.86 7
 -6 -2 -9 823.119 92.8383 4
 -6 -2 -9 938.669 95.5366 6
 -6 -2 -9 641.599 83.6838 2
 -6 -1 13 392.289 64.8316 1
 6 -1 -13 484.745 73.8031 8
 6 -1 -13 512.195 72.6138 3
 -6 -1 12 230.025 49.5474 3
 -6 -1 12 178.643 50.5747 1
 6 -1 -12 210.105 55.2037 8
 6 -1 -12 119.286 47.7814 3
 -6 -1 11 365.251 60.9666 3
 -6 -1 11 339.117 55.6541 1
 6 -1 -11 287.98 53.371 8
 6 -1 -11 369.971 61.8465 3
 -6 -1 10 -8.09965 35.9364 3
 6 -1 -10 -7.48454 32.6088 5
 -6 -1 10 22.7991 31.217 1
 6 -1 -10 8.42871 28.2689 8
 6 -1 -10 -25.1967 35.9085 3
 6 -1 -10 15.0024 28.8224 4
 -6 -1 9 99.7552 37.0653 3
 6 -1 -9 90.102 32.4762 5
 -6 -1 9 76.5213 32.0689 1
 6 -1 -9 86.4736 35.6051 8
 6 -1 -9 55.718 35.4252 3
 6 -1 -9 118.388 35.6269 4
 -6 -1 8 43.4449 31.663 3
 6 -1 -8 115.364 35.7489 5
 -6 -1 8 113.406 36.3173 1
 6 -1 -8 43.7787 34.1704 8
 6 -1 -8 127.366 40.8017 3
 6 -1 -8 89.9728 30.6023 4
 -6 -1 7 550.963 64.768 3
 6 -1 -7 563.784 58.8294 5
 -6 -1 7 530.316 54.2528 1
 6 -1 -7 569.043 61.9722 8
 6 -1 -7 498.203 59.5438 3
 6 -1 -7 505.587 57.6725 4
 6 -1 -6 2309.18 120.657 5
 6 -1 -6 2047.44 120.303 8
 6 -1 -6 2050.22 116.263 4
 -6 -1 6 2189.91 124.194 3
 6 -1 -5 1950.21 107.528 5
 6 -1 -5 1839.25 110.197 8
 6 -1 -5 1830.19 105.021 4
 -6 -1 5 1999.07 112.839 3
 6 -1 -4 3924.22 173.933 5
 6 -1 -4 3849.16 176.73 8
 6 -1 -4 3946.18 174.592 4
 -6 -1 4 3910.28 178.206 3
 6 -1 -3 6271.17 245.685 5
 6 -1 -3 5891.53 244.474 8
 6 -1 -3 6015.05 242.173 7
 6 -1 -3 6024.18 244.277 4
 6 -1 -3 6047.73 241.157 6
 -6 -1 3 6103.81 245.046 3
 6 -1 -2 1161.36 77.5382 5
 6 -1 -2 1276.61 79.9987 8
 6 -1 -2 1205.38 79.6313 7
 6 -1 -2 1376.3 82.8966 4
 6 -1 -2 1285.98 79.836 6
 -6 -1 2 1276.57 79.1885 3
 6 -1 -2 1123.64 73.8676 1
 -6 -1 1 1512.53 94.1472 4
 -6 -1 1 1344.68 91.0605 5
 -6 -1 0 2499.14 131.67 4
 -6 -1 0 2485.97 132.791 7
 -6 -1 0 2614.55 134.683 6
 -6 -1 0 2424.85 130.095 2
 -6 -1 0 2496.47 130.788 5
 -6 -1 -1 747.406 68.3379 5
 -6 -1 -1 799.728 72.3717 7
 -6 -1 -1 835.446 69.9838 4
 -6 -1 -1 860.736 73.5477 6
 -6 -1 -1 768.456 69.2049 2
 -6 -1 -2 1173.98 87.645 5
 -6 -1 -2 1437.69 93.573 4
 -6 -1 -2 1349.53 92.0274 7
 -6 -1 -2 1098.79 87.2583 6
 -6 -1 -2 1159.15 85.8322 2
 -6 -1 -3 664.595 67.1343 5
 -6 -1 -3 562.654 65.0939 7
 -6 -1 -3 646.272 66.5086 4
 -6 -1 -3 629.531 70.0435 6
 -6 -1 -3 624.832 68.6686 2
 -6 -1 -4 1231.41 92.3358 5
 -6 -1 -4 1177.38 84.4722 8
 -6 -1 -4 890.857 84.6092 7
 -6 -1 -4 1021.79 87.197 4
 -6 -1 -4 1098.72 89.1254 2
 -6 -1 -4 1009.36 88.3234 6
 -6 -1 -5 360.111 57.1653 5
 -6 -1 -5 350.361 57.7763 7
 -6 -1 -5 370.423 57.9311 4
 -6 -1 -5 400.518 57.8827 6
 -6 -1 -5 385.986 61.0397 2
 -6 -1 -6 466.136 63.8597 5
 -6 -1 -6 473.349 65.8735 7
 -6 -1 -6 501.198 64.2134 4
 -6 -1 -6 528.374 66.8661 6
 -6 -1 -6 372.942 57.9707 2
 -6 -1 -7 171.852 48.9377 5
 -6 -1 -7 300.321 57.8807 7
 -6 -1 -7 233.206 51.7829 4
 -6 -1 -7 205.221 50.2176 6
 -6 -1 -7 363.775 65.8107 2
 -6 -1 -8 330.02 61.1955 5
 -6 -1 -8 269.949 59.6165 7
 -6 -1 -8 239.354 56.9178 4
 -6 -1 -8 292.093 61.8609 6
 -6 -1 -8 293.763 61.761 2
 -6 -1 -9 389.207 68.983 5
 -6 -1 -9 312.671 64.7591 4
 -6 -1 -9 367.579 68.4027 6
 -6 -1 -9 446.615 69.7924 2
 6 0 -13 19.117 48.7626 5
 -6 0 13 58.4657 41.6746 1
 6 0 -13 10.0574 40.4568 8
 6 0 -13 66.6598 49.2324 4
 6 0 -12 242.361 53.801 5
 -6 0 12 191.56 51.91 1
 6 0 -12 277.147 59.9479 8
 6 0 -12 310.104 63.5538 3
 6 0 -12 241.683 59.1469 4
 -6 0 11 -8.49298 33.4015 3
 6 0 -11 -16.8073 37.2855 5
 -6 0 11 8.4807 30.1692 1
 6 0 -11 72.1949 44.1212 8
 6 0 -11 8.74959 29.3457 3
 6 0 -11 8.40807 30.7304 4
 -6 0 10 97.0636 40.8402 3
 6 0 -10 125.756 38.5833 5
 -6 0 10 125.275 40.0835 1
 6 0 -10 93.3006 38.4551 8
 6 0 -10 102.535 37.571 4
 -6 0 9 7.65224 33.3432 3
 6 0 -9 29.1912 28.0452 5
 -6 0 9 28.8752 34.774 1
 6 0 -9 7.93315 33.9209 8
 6 0 -9 7.32116 29.4438 4
 -6 0 8 151.223 41.8802 3
 -6 0 8 171.659 40.4232 1
 6 0 -8 203.493 43.4081 5
 6 0 -8 289.38 49.7895 8
 6 0 -8 210.84 43.1468 4
 -6 0 7 884.072 74.525 1
 -6 0 7 917.286 79.6863 3
 6 0 -7 1091.55 83.7656 8
 6 0 -7 954.725 78.946 5
 6 0 -7 1084.33 81.7751 4
 6 0 -6 2422.93 127.505 5
 -6 0 6 2029.03 117.458 1
 6 0 -6 2237.82 127.579 8
 6 0 -6 2244.05 124.047 4
 -6 0 6 2306.91 127.633 3
 6 0 -5 2962.7 148.597 5
 -6 0 5 2846.85 141.108 1
 6 0 -5 3058.1 152.76 8
 6 0 -5 3026.74 144.564 7
 6 0 -5 3083.25 149.558 4
 6 0 -5 3134.42 145.944 6
 -6 0 5 2945.66 148.689 3
 -6 0 4 493.509 50.9505 3
 6 0 -4 508.964 52.6245 5
 6 0 -4 490.028 51.8229 8
 6 0 -4 460.275 49.8891 7
 6 0 -4 376.976 48.4552 4
 6 0 -4 406.993 47.9725 6
 -6 0 3 206.104 37.0628 3
 6 0 -3 264.806 40.1696 5
 6 0 -3 257.837 39.9706 8
 6 0 -3 197.748 35.9253 7
 6 0 -3 282.347 41.8658 4
 6 0 -3 185.31 37.0907 6
 6 0 -2 2543.46 130.15 5
 6 0 -2 2395.81 127.329 7
 6 0 -2 2429.95 128.585 4
 6 0 -2 2635.83 130.206 6
 -6 0 2 2679.23 124.35 3
 -6 0 1 -15.5496 24.1981 5
 -6 0 1 15.5465 24.1933 4
 6 0 -1 11.0807 26.6867 7
 -6 0 1 19.9375 25.0763 2
 6 0 -1 16.3449 26.2434 6
 -6 0 0 163.285 35.5688 5
 -6 0 0 181.221 38.7198 7
 -6 0 0 195.531 34.8475 4
 -6 0 0 204.801 41.1688 6
 -6 0 0 205.605 40.2371 2
 -6 0 -1 5274.21 223.828 5
 -6 0 -1 5464.88 225.448 4
 -6 0 -1 5384.4 227.526 7
 -6 0 -1 5015.22 225.055 6
 -6 0 -1 5250.52 225.362 2
 -6 0 -2 58.2817 31.347 5
 -6 0 -2 62.4542 32.7567 7
 -6 0 -2 94.2435 32.8141 4
 -6 0 -2 44.0451 28.4732 6
 -6 0 -2 42.2658 31.265 2
 -6 0 -3 619.858 61.7022 5
 -6 0 -3 561.571 63.4501 7
 -6 0 -3 514.849 58.7676 4
 -6 0 -3 707.771 68.7449 6
 -6 0 -3 557.918 61.0136 2
 -6 0 -4 326.188 49.4471 5
 -6 0 -4 373.558 53.8712 7
 -6 0 -4 288.899 45.5628 4
 -6 0 -4 282.694 51.1885 6
 -6 0 -4 385.138 56.0544 2
 -6 0 -5 171.838 42.2208 5
 -6 0 -5 138.038 42.8462 7
 -6 0 -5 129.854 37.9938 4
 -6 0 -5 85.3322 41.8474 6
 -6 0 -5 113.27 42.6685 2
 -6 0 -6 1264.39 100.326 5
 -6 0 -6 1332.85 103.031 4
 -6 0 -6 1262.86 102.935 7
 -6 0 -6 1251.19 102.904 6
 -6 0 -6 1363.95 102.755 2
 -6 0 -7 78.2804 37.9243 2
 -6 0 -7 33.1248 33.3336 5
 -6 0 -7 35.0269 33.6795 7
 -6 0 -7 49.9244 36.2827 4
 -6 0 -7 44.2501 37.8666 6
 -6 0 -8 360.927 60.9378 2
 -6 0 -8 292.331 54.493 5
 -6 0 -8 289.102 57.2727 7
 -6 0 -8 293.728 58.1966 4
 -6 0 -8 347.25 61.2713 6
 -6 0 -9 48.949 50.7539 2
 -6 0 -9 151.022 47.6489 5
 -6 0 -9 98.6381 53.1039 7
 -6 0 -9 142.251 45.8483 4
 -6 0 -9 178.712 57.2077 6
 6 1 -13 483.394 77.6223 5
 -6 1 13 477.935 76.0622 1
 6 1 -13 390.471 71.2189 8
 6 1 -13 471.705 74.6535 4
 6 1 -12 241.655 53.8727 5
 -6 1 12 205.865 51.9124 1
 6 1 -12 248.511 57.0895 8
 6 1 -12 185.716 46.5781 4
 6 1 -11 411.166 65.8703 5
 -6 1 11 340.889 63.7429 1
 6 1 -11 317.042 62.3842 8
 6 1 -11 438.339 68.0213 4
 -6 1 10 16.2369 37.9008 1
 6 1 -10 -8.19677 35.7126 5
 6 1 -10 -17.0808 37.8925 8
 6 1 -10 -8.23161 37.1689 4
 -6 1 9 127.935 40.636 1
 6 1 -9 91.9234 41.851 5
 6 1 -9 176.736 44.3826 8
 6 1 -9 153.61 43.4176 4
 -6 1 8 83.2589 34.5199 1
 6 1 -8 78.7363 33.5219 5
 6 1 -8 113.091 35.8593 8
 6 1 -8 64.5623 31.939 4
 -6 1 7 530.078 61.0321 1
 -6 1 7 503.707 60.5617 3
 6 1 -7 543.771 62.8989 5
 6 1 -7 561.332 64.3897 8
 6 1 -7 591.087 61.2488 7
 6 1 -7 599.256 62.3087 4
 6 1 -7 551.749 59.6175 6
 6 1 -6 2359.72 129.129 5
 -6 1 6 2278.43 123.658 1
 6 1 -6 1979.59 123.652 8
 6 1 -6 2059.88 118.51 7
 6 1 -6 2150.07 124.106 4
 6 1 -6 2200.74 120.491 6
 -6 1 6 2275.15 126.587 3
 6 1 -5 1981.63 114.393 5
 -6 1 5 1843.21 108.231 1
 6 1 -5 1910.53 115.486 8
 6 1 -5 1957.56 112.365 7
 6 1 -5 1848.51 112.717 4
 6 1 -5 1880.22 111.393 6
 -6 1 5 2023.32 113.747 3
 6 1 -4 3841.85 183.934 5
 -6 1 4 3960.55 176.993 1
 6 1 -4 4197.11 184.939 7
 6 1 -4 4204.3 188.431 4
 6 1 -4 4069.84 183.219 6
 -6 1 4 3915.25 179.355 3
 6 1 -4 4009.99 187.263 8
 -6 1 3 5761.44 238.652 1
 6 1 -3 6297.68 253.453 5
 6 1 -3 5962.26 249.717 7
 6 1 -3 6236.48 253.296 4
 6 1 -3 5801.22 248.223 6
 -6 1 3 6182.55 243.584 3
 6 1 -2 1217.34 85.1998 5
 6 1 -2 1302.39 88.4053 7
 6 1 -2 1216.19 84.9057 4
 6 1 -2 1113.72 83.2858 6
 -6 1 2 1156.62 74.7503 3
 -6 1 1 1669.92 92.2556 4
 -6 1 1 1433.55 90.0976 7
 6 1 -1 1588.11 98.8896 7
 -6 1 1 1397.74 88.9947 6
 -6 1 1 1509.07 89.5029 2
 6 1 -1 1511.44 96.8523 6
 -6 1 1 1481.71 88.6486 5
 -6 1 0 2356.74 122.511 4
 -6 1 0 2448.84 126.543 7
 -6 1 0 2552.56 127.75 6
 -6 1 0 2301.38 122.597 2
 -6 1 0 2664.63 126.473 5
 -6 1 -1 775.449 65.1313 5
 -6 1 -1 879.36 69.5578 4
 -6 1 -1 747.139 66.6465 7
 -6 1 -1 927.674 72.8268 6
 -6 1 -1 819.144 69.2012 2
 -6 1 -2 1288.55 86.6907 5
 -6 1 -2 1349.72 89.2563 4
 -6 1 -2 1423.3 92.9216 7
 -6 1 -2 1269.63 89.9269 6
 -6 1 -2 1326.75 90.6697 2
 -6 1 -3 640.891 61.9714 5
 -6 1 -3 629.357 65.8173 7
 -6 1 -3 584.203 60.6993 4
 -6 1 -3 634.81 65.8695 6
 -6 1 -3 666.792 66.0542 2
 -6 1 -4 1297.09 90.0772 5
 -6 1 -4 1143.78 86.6009 4
 -6 1 -4 1118.94 92.1911 7
 -6 1 -4 1257.47 94.6284 6
 -6 1 -4 1043.37 90.9258 2
 -6 1 -5 323.9 55.7101 2
 -6 1 -5 436.312 57.3458 5
 -6 1 -5 448.593 63.985 7
 -6 1 -5 356.518 50.9633 4
 -6 1 -5 389.75 58.9708 6
 -6 1 -6 463.987 67.8754 2
 -6 1 -6 479.156 63.327 5
 -6 1 -6 400.822 63.1786 7
 -6 1 -6 459.34 61.7812 4
 -6 1 -6 600.427 74.8503 6
 -6 1 -7 104.792 50.6729 2
 -6 1 -7 222.55 48.5535 5
 -6 1 -7 316.035 60.1984 7
 -6 1 -7 223.594 51.0228 4
 -6 1 -7 255.14 57.5585 6
 -6 1 -8 353.975 61.8722 2
 -6 1 -8 341.653 59.0936 5
 -6 1 -8 299.773 60.7073 7
 -6 1 -8 377.56 59.7936 4
 -6 1 -8 253.373 57.6745 6
 -6 1 -9 276.614 62.302 2
 -6 1 -9 410.388 65.2629 5
 -6 1 -9 208.595 60.3776 7
 -6 1 -9 357.321 64.6518 4
 -6 1 -9 408.052 69.5925 6
 -6 2 13 40.7029 42.6689 1
 6 2 -13 -10.1419 45.8018 5
 6 2 -13 69.8688 49.5191 8
 6 2 -13 30.3045 44.8263 4
 -6 2 12 -9.6141 41.8871 1
 6 2 -12 19.1884 41.8004 5
 6 2 -12 9.54265 36.6664 8
 6 2 -12 -9.59838 40.24 4
 -6 2 11 316.028 55.6404 1
 6 2 -11 254.164 56.4456 5
 6 2 -11 317.852 59.9574 8
 6 2 -11 127.532 46.4565 4
 -6 2 10 202.676 47.8994 1
 6 2 -10 187.26 45.559 5
 6 2 -10 189.145 47.1252 8
 6 2 -10 196.535 50.5324 4
 -6 2 9 165.432 40.3644 1
 6 2 -9 215.879 46.1233 5
 6 2 -9 89.455 34.9836 8
 6 2 -9 71.5996 34.7038 7
 6 2 -9 152.341 42.6948 4
 6 2 -9 86.2586 41.0609 6
 -6 2 8 300.382 53.4884 1
 6 2 -8 337.612 55.0871 5
 6 2 -8 369.624 56.1205 8
 6 2 -8 437.277 55.9076 7
 6 2 -8 293.217 51.4745 4
 6 2 -8 239.68 47.7725 6
 6 2 -7 1996.24 122.319 5
 -6 2 7 1635.08 112.446 1
 6 2 -7 1886.91 120.168 8
 6 2 -7 1869.61 115.485 7
 6 2 -7 2121.06 124.373 4
 6 2 -7 1809.91 114.964 6
 6 2 -6 6849.84 286.447 5
 -6 2 6 7152.19 284.518 1
 6 2 -6 6688.97 287.56 8
 6 2 -6 6565.99 279.545 7
 6 2 -6 6917.52 287.028 4
 6 2 -6 6814.05 281.643 6
 6 2 -5 9737.16 387.433 5
 -6 2 5 9986.38 382.659 1
 6 2 -5 9966 391.045 8
 6 2 -5 10121.2 385.68 7
 6 2 -5 10100.1 389.64 4
 6 2 -5 10428.7 388.2 6
 -6 2 4 4566.03 202.336 1
 6 2 -4 4804.69 212.248 5
 6 2 -4 4513.44 209.748 8
 6 2 -4 4708.62 209.41 7
 6 2 -4 4931.66 214.21 4
 6 2 -4 4515.57 207.388 6
 -6 2 3 3026.97 153.94 1
 6 2 -3 3301.95 165.413 5
 6 2 -3 3699.22 170.416 7
 6 2 -3 3470.3 168.327 4
 6 2 -3 3596 169.057 6
 6 2 -2 235.553 43.0784 5
 6 2 -2 287.282 46.4415 7
 6 2 -2 298.718 45.0917 4
 6 2 -2 253.202 43.8512 6
 6 2 -1 1968.23 117.482 7
 6 2 -1 1989.78 117.924 6
 -6 2 0 293.765 42.8431 7
 6 2 0 314.043 50.1751 7
 -6 2 0 325.338 42.0193 6
 -6 2 0 340.317 43.0637 2
 6 2 0 385.296 52.1464 6
 -6 2 -1 1197.38 83.3324 7
 -6 2 -1 1309.15 86.2226 6
 -6 2 -1 1356.78 86.538 2
 -6 2 -2 1656.97 102.79 7
 -6 2 -2 1722.85 104.32 6
 -6 2 -2 1491.09 98.1685 2
 -6 2 -3 5772.4 240.448 7
 -6 2 -3 5363.83 237.577 6
 -6 2 -3 5310.78 236.063 2
 -6 2 -4 1786.1 115.191 7
 -6 2 -4 1913.31 118.379 6
 -6 2 -4 1851.06 117.42 2
 -6 2 -5 1615.04 108.212 6
 -6 2 -5 1391.74 104.498 2
 -6 2 -6 1679.84 122.245 7
 -6 2 -6 1716.41 120.64 6
 -6 2 -6 1711.68 124.57 2
 -6 2 -7 333.099 64.7406 2
 -6 2 -7 264.279 57.9595 7
 -6 2 -7 281.098 60.9959 6
 -6 2 -8 196.83 51.2436 2
 -6 2 -8 141.486 50.3375 7
 -6 2 -8 197.31 55.9918 6
 -6 2 -9 856.409 94.8961 2
 -6 2 -9 761.472 88.1326 7
 -6 2 -9 768.12 87.7791 6
 6 3 -13 59.4355 47.0231 8
 -6 3 12 701.503 86.4193 1
 6 3 -12 778.787 88.5833 5
 6 3 -12 666.756 80.0295 8
 6 3 -12 769.235 86.2704 4
 -6 3 11 345.837 61.8904 1
 6 3 -11 206.166 55.7584 5
 6 3 -11 263.96 59.3312 8
 6 3 -11 357.312 64.219 4
 -6 3 10 70.3828 35.4483 1
 6 3 -10 61.781 40.5945 5
 6 3 -10 69.569 39.9996 8
 6 3 -10 32.6556 39.9767 7
 6 3 -10 79.6799 44.5957 4
 6 3 -10 123.176 47.2564 6
 -6 3 9 355.749 56.3956 1
 6 3 -9 408.082 60.4959 5
 6 3 -9 396.359 63.4965 8
 6 3 -9 413.921 58.008 7
 6 3 -9 442.631 64.1931 4
 6 3 -9 305.846 54.3994 6
 -6 3 8 612.646 70.3831 1
 6 3 -8 486.678 65.4847 5
 6 3 -8 592.104 69.3984 8
 6 3 -8 440.68 64.3939 7
 6 3 -8 526.976 66.2658 4
 6 3 -8 651.389 72.3139 6
 -6 3 7 130.925 39.7671 1
 6 3 -7 104.582 39.8562 5
 6 3 -7 196.129 47.1117 8
 6 3 -7 150.209 43.0542 7
 6 3 -7 149.689 44.1472 4
 6 3 -7 114.864 39.2561 6
 -6 3 6 621.586 64.9355 1
 6 3 -6 844.015 78.1963 5
 6 3 -6 872.458 77.9465 8
 6 3 -6 730.491 74.5016 7
 6 3 -6 796.278 77.2422 4
 6 3 -6 719.509 72.4773 6
 -6 3 5 392.718 55.5668 1
 6 3 -5 271.27 51.638 5
 6 3 -5 265.512 47.3652 8
 6 3 -5 335.847 52.1194 7
 6 3 -5 431.308 59.0231 4
 6 3 -5 370.834 53.5169 6
 6 3 -4 1377.97 98.4577 5
 6 3 -4 1604.13 102.033 7
 6 3 -4 1513.15 101.709 4
 6 3 -4 1373.39 97.5302 6
 -6 3 3 1617.43 99.7976 1
 6 3 -3 1484.77 104.775 5
 6 3 -3 1604.42 105.589 7
 6 3 -3 1573.21 106.848 4
 6 3 -3 1527.16 103.743 6
 6 3 -2 933.933 79.5083 5
 6 3 -2 860.308 76.9124 7
 6 3 -2 817.867 73.7051 4
 6 3 -2 806.816 74.7244 6
 6 3 -1 197.357 44.5399 7
 6 3 -1 154.529 37.3471 6
 6 3 0 242.911 50.7514 7
 6 3 0 279.65 49.572 6
 6 3 1 936.208 83.931 7
 6 3 1 876.545 78.2418 6
 -6 3 -2 391.695 51.1162 7
 -6 3 -2 371.501 49.8537 6
 -6 3 -2 351.957 48.5845 2
 -6 3 -3 786.166 72.581 2
 -6 3 -3 652.647 66.5983 7
 -6 3 -3 820.664 71.9561 6
 -6 3 -4 68.8481 35.7084 2
 -6 3 -4 76.4853 36.9912 7
 -6 3 -4 138.522 38.6351 6
 -6 3 -5 248.232 51.1847 2
 -6 3 -5 235.147 50.8126 7
 -6 3 -5 331.782 53.9639 6
 -6 3 -6 16.3484 36.2671 2
 -6 3 -6 8.21452 30.8025 7
 -6 3 -6 -16.3509 32.1522 6
 -6 3 -7 96.8895 43.9497 2
 -6 3 -7 203.882 52.7703 7
 -6 3 -7 167.287 50.8334 6
 -6 3 -8 1047.18 103.579 2
 -6 3 -8 1072.46 102.603 7
 -6 3 -8 1074.3 101.343 6
 -6 3 -9 381.33 73.1435 2
 -6 3 -9 443.815 73.0193 7
 -6 3 -9 440.725 70.5566 6
 -6 4 12 122.024 50.0066 1
 6 4 -12 212.185 57.7116 5
 6 4 -12 151.763 49.9581 8
 6 4 -12 179.924 52.9434 7
 6 4 -12 182.228 57.1969 4
 6 4 -12 180.698 51.3435 6
 -6 4 11 29.0282 43.6917 1
 6 4 -11 -19.2357 36.9567 5
 6 4 -11 18.2333 35.031 8
 6 4 -11 36.4841 41.8896 7
 6 4 -11 19.3155 34.3575 4
 6 4 -11 9.16052 39.1662 6
 -6 4 10 431.237 67.2078 1
 6 4 -10 391.911 68.5069 5
 6 4 -10 411.954 65.1702 8
 6 4 -10 545.789 73.2942 7
 6 4 -10 457.108 68.7082 4
 6 4 -10 415.176 66.4868 6
 -6 4 9 851.248 85.6604 1
 6 4 -9 759.868 84.5745 5
 6 4 -9 721.775 79.3248 8
 6 4 -9 607.979 77.5379 7
 6 4 -9 805.103 82.2513 4
 6 4 -9 686.705 80.6881 6
 -6 4 8 484.29 64.3535 1
 6 4 -8 352.011 56.7905 5
 6 4 -8 484.78 63.0335 8
 6 4 -8 404.657 63.1331 7
 6 4 -8 475.699 63.5648 4
 6 4 -8 576.031 71.1954 6
 -6 4 7 730.914 75.2735 1
 6 4 -7 469.369 66.9593 5
 6 4 -7 585.562 69.9697 8
 6 4 -7 535.825 68.3892 7
 6 4 -7 493.77 67.3983 4
 6 4 -7 537.054 66.6453 6
 -6 4 6 914.538 82.2791 1
 6 4 -6 1109.23 91.0281 8
 6 4 -6 902.941 84.439 5
 6 4 -6 942.859 84.2648 7
 6 4 -6 837.675 81.0317 4
 6 4 -6 909.11 84.5637 6
 -6 4 5 84.1882 31.3081 1
 6 4 -5 146.868 43.668 5
 6 4 -5 73.367 30.9414 8
 6 4 -5 123.808 42.8773 7
 6 4 -5 132.201 39.5745 4
 6 4 -5 116.917 42.582 6
 6 4 -4 122.895 43.7982 5
 6 4 -4 136.595 37.7475 7
 6 4 -4 79.8076 39.5228 4
 6 4 -4 50.6458 32.2213 6
 -6 4 4 73.7485 32.4128 1
 6 4 -3 248.743 47.2001 5
 6 4 -3 408.688 58.1911 7
 6 4 -3 328.355 53.4375 4
 6 4 -3 286.859 50.5566 6
 6 4 -2 3450.99 174.586 5
 6 4 -2 3520.42 176.763 7
 6 4 -2 3076.39 169.934 4
 6 4 -2 3520.24 175.984 6
 6 4 -1 710.72 73.741 7
 6 4 -1 617.12 70.5057 6
 6 4 0 942.479 84.5048 7
 6 4 0 740.323 75.4941 6
 6 4 1 436.018 61.2346 7
 6 4 1 391.33 59.8752 6
 6 4 2 626.317 73.4511 7
 6 4 2 682.843 76.0076 6
 6 4 3 647.299 76.6443 7
 6 4 3 737.404 78.4499 6
 -6 4 -5 22.5953 35.1631 2
 -6 4 -5 22.7792 36.0164 7
 -6 4 -5 -7.53491 33.4325 6
 -6 4 -6 65.6693 41.9201 2
 -6 4 -6 57.737 31.7637 7
 -6 4 -6 81.8081 40.0533 6
 -6 4 -7 513.883 71.8067 2
 -6 4 -7 507.397 71.7411 7
 -6 4 -7 449.893 70.3517 6
 -6 4 -8 265.832 59.9328 2
 -6 4 -8 209.754 52.2245 7
 -6 4 -8 160.574 50.5197 6
 6 5 -12 222.237 54.0364 6
 -6 5 11 10.0103 40.2905 1
 6 5 -11 68.8549 41.2741 5
 6 5 -11 77.7473 50.9176 7
 6 5 -11 128.401 48.3208 4
 6 5 -11 9.76773 44.8917 6
 -6 5 10 191.161 52.2629 1
 6 5 -10 187.373 53.016 5
 6 5 -10 237.614 53.0172 8
 6 5 -10 187.991 50.1843 7
 6 5 -10 112.767 51.9951 4
 6 5 -10 179.476 52.2621 6
 -6 5 9 437.649 68.5553 1
 6 5 -9 374.451 64.5336 5
 6 5 -9 332.598 57.0975 8
 6 5 -9 344.171 62.8285 7
 6 5 -9 384.345 64.6929 4
 6 5 -9 381.94 68.3812 6
 -6 5 8 712.204 81.1553 1
 6 5 -8 696.267 79.1555 5
 6 5 -8 577.816 70.3006 8
 6 5 -8 574.504 78.9955 7
 6 5 -8 901.814 86.3633 4
 6 5 -8 769.033 84.8446 6
 -6 5 7 8.29296 29.5015 1
 6 5 -7 65.238 36.1813 5
 6 5 -7 -24.1161 31.6151 8
 6 5 -7 16.7303 40.2924 7
 6 5 -7 16.3403 32.1321 4
 6 5 -7 -16.7717 36.5363 6
 -6 5 6 1632.97 119.003 1
 6 5 -6 1937.54 125.564 5
 6 5 -6 1856.2 123.79 8
 6 5 -6 1919.35 125.98 7
 6 5 -6 1587.78 118.682 4
 6 5 -6 1758.42 122.572 6
 -6 5 5 2684.79 151.791 1
 6 5 -5 2387.94 144.334 5
 6 5 -5 2649.51 149.711 8
 6 5 -5 2399.16 145.717 7
 6 5 -5 2512.22 146.53 4
 6 5 -5 2400.28 145.801 6
 6 5 -4 311.117 54.7826 5
 6 5 -4 414.121 59.3078 7
 6 5 -4 334.533 54.5135 4
 6 5 -4 361.641 54.3814 6
 6 5 -3 90.0961 40.4438 5
 6 5 -3 68.6595 38.5207 7
 6 5 -3 83.0242 35.3894 4
 6 5 -2 1762.95 118.57 5
 6 5 -2 1631.37 118.137 7
 6 5 -2 1629.65 114.314 4
 6 5 -2 1981.89 124.691 6
 6 5 -1 1418.62 105.454 5
 6 5 -1 1301.21 102.867 7
 6 5 -1 1296.54 101.982 4
 6 5 -1 1412.42 105.121 6
 6 5 0 2113.15 134.487 7
 6 5 0 2251.86 136.051 6
 6 5 1 3262.45 180.991 7
 6 5 1 3684.16 185.946 6
 6 5 2 500.782 69.5835 7
 6 5 2 683.454 75.921 6
 6 5 3 1095.6 97.6532 7
 6 5 3 1080.95 94.4183 6
 6 5 4 93.8867 41.8957 7
 6 5 4 142.363 44.0083 6
 6 5 5 264.839 57.6653 7
 6 5 5 138.608 50.1764 6
 -6 5 -8 142.535 59.7878 2
 -6 5 -8 133.611 51.4302 7
 -6 5 -8 141.846 49.7147 6
 6 6 -11 430.215 71.9818 5
 6 6 -11 421.938 69.7695 4
 -6 6 10 347.732 67.4307 1
 6 6 -10 325.568 60.9544 5
 6 6 -10 328.975 62.277 7
 6 6 -10 364.974 65.2397 4
 6 6 -10 250.614 62.0484 6
 -6 6 9 946.226 99.3811 1
 6 6 -9 742.328 84.7502 5
 6 6 -9 664.036 88.2649 7
 6 6 -9 781.119 86.6913 4
 6 6 -9 840.653 93.9863 6
 -6 6 8 256.806 52.372 1
 6 6 -8 262.837 54.7328 5
 6 6 -8 269.313 56.3362 7
 6 6 -8 438.918 63.9577 4
 6 6 -8 233.143 53.7973 6
 6 6 -7 354.143 59.7004 5
 6 6 -7 331.569 56.6288 8
 6 6 -7 303.782 60.4232 7
 6 6 -7 372.097 59.0243 4
 6 6 -7 259.74 61.0297 6
 -6 6 7 397.042 62.3824 1
 6 6 -6 735.338 78.8928 5
 6 6 -6 924.488 86.2307 8
 6 6 -6 734.327 81.3688 7
 6 6 -6 819.557 83.1841 4
 6 6 -6 728.127 83.5351 6
 -6 6 6 832.676 85.667 1
 6 6 -5 -8.01838 32.9374 5
 6 6 -5 -16.7508 33.6796 7
 6 6 -5 8.02304 30.8281 4
 6 6 -5 42.0451 29.0716 6
 6 6 -4 158.825 46.8607 5
 6 6 -4 90.1247 40.9296 7
 6 6 -4 167.129 47.4331 4
 6 6 -4 213.801 48.0139 6
 6 6 -3 566.727 67.6909 5
 6 6 -3 597.708 72.8894 7
 6 6 -3 451.284 61.9591 4
 6 6 -3 650.589 75.2358 6
 6 6 -2 2351.28 146.756 5
 6 6 -2 2723.54 153.482 7
 6 6 -2 2418.86 147.903 4
 6 6 -2 2417.04 149.952 6
 6 6 -1 54.8098 33.5081 5
 6 6 -1 64.6543 39.5397 7
 6 6 -1 7.85915 36.719 4
 6 6 -1 80.5704 39.9935 6
 6 6 0 65.3061 40.5337 7
 6 6 0 48.5615 38.4311 6
 6 6 1 148.43 45.468 7
 6 6 1 73.4415 41.1948 6
 6 6 2 1550.76 115.611 7
 6 6 2 1488.41 113.053 6
 6 6 3 136.878 50.4588 7
 6 6 3 176.8 51.633 6
 6 7 -10 281.582 62.0345 5
 6 7 -10 496.538 76.6006 4
 -6 7 9 9.96245 43.4158 1
 6 7 -9 37.3504 35.8919 5
 6 7 -9 91.3215 49.6185 7
 6 7 -9 18.7262 32.3841 4
 6 7 -9 20.3969 44.4438 6
 6 7 -8 503.534 71.7317 5
 6 7 -8 598.72 74.8839 7
 6 7 -8 423.506 67.367 4
 6 7 -8 522.654 71.4933 6
 -6 7 8 482.032 73.6147 1
 6 7 -7 312.167 57.7974 5
 6 7 -7 294.311 63.098 7
 6 7 -7 400.052 64.4757 4
 6 7 -7 343.015 64.8136 6
 -6 7 7 345.838 65.5179 1
 6 7 -6 8.42274 29.9757 5
 6 7 -6 36.7043 42.1505 7
 6 7 -6 42.2193 36.1117 4
 6 7 -6 36.7947 39.3379 6
 6 7 -5 570.47 70.5705 5
 6 7 -5 587.006 74.1506 7
 6 7 -5 463.821 65.0034 4
 6 7 -5 464.531 66.5017 6
 6 7 -4 197.126 52.2648 5
 6 7 -4 147.318 52.1605 7
 6 7 -4 156.14 50.4432 4
 6 7 -4 165.31 53.8703 6
 6 7 -3 163.336 53.4527 5
 6 7 -3 383.21 60.9135 7
 6 7 -3 344.316 60.2854 4
 6 7 -3 341.565 59.8043 6
 6 7 -2 773.175 83.5258 5
 6 7 -2 690.983 78.0477 7
 6 7 -2 760.642 80.4732 4
 6 7 -2 720.809 80.4074 6
 6 7 -1 1923.27 126.414 5
 6 7 -1 1656.22 121.611 7
 6 7 -1 1531.66 116.276 4
 6 7 -1 1576.14 121.149 6
 6 7 0 651.405 76.6954 5
 6 7 0 591.394 76.829 7
 6 7 0 662.206 76.3423 4
 6 7 0 709.674 81.5808 6
 6 7 1 204.369 51.402 7
 6 7 1 203.075 51.5722 6
 6 8 -8 205.611 55.4133 7
 6 8 -8 113.544 49.2059 6
 6 8 -7 79.7758 51.559 7
 6 8 -7 20.0307 38.5052 6
 6 8 -6 463.536 72.3482 7
 6 8 -6 397.195 65.8989 6
 6 8 -5 1349.33 113.176 7
 6 8 -5 1194.06 107.607 6
 6 8 -4 237.029 54.8109 7
 6 8 -4 347.974 62.5674 6
 6 8 -3 106.953 41.7242 7
 6 8 -3 89.5199 37.6583 6
 6 8 -2 228.376 51.7634 7
 6 8 -2 326.008 56.4525 6
 6 8 -1 270.148 54.6702 7
 6 8 -1 394.451 64.0556 6
 6 9 -6 392.376 69.2464 7
 6 9 -6 424.219 71.0398 6
 6 9 -5 633.969 83.0032 7
 6 9 -5 518.275 79.9118 6
 6 9 -4 693.445 83.4343 7
 6 9 -4 791.319 91.7282 6
 -7 -8 6 378.23 69.0006 3
 7 -8 -6 253.054 57.3689 3
 7 -8 -6 306.323 69.1781 1
 -7 -8 5 1063.04 102.998 3
 7 -8 -5 882.964 99.0151 1
 7 -8 -4 129.105 44.9869 1
 -7 -8 4 93.6494 49.1695 3
 -7 -8 3 543.878 75.5217 3
 7 -8 -3 599.899 79.892 1
 -7 -8 2 254.794 56.8962 3
 7 -8 -2 352.725 65.8895 1
 7 -8 -1 137.742 47.5932 1
 7 -8 0 636.176 82.4813 1
 7 -8 1 652.211 86.6696 1
 7 -8 2 151.807 49.7164 1
 7 -7 -8 -40.4166 49.4002 1
 -7 -7 8 29.936 39.244 3
 7 -7 -8 10.0848 44.7443 3
 7 -7 -7 78.9062 48.9788 1
 -7 -7 7 68.1444 46.9444 3
 7 -7 -7 67.6498 40.5793 3
 -7 -7 6 433.442 67.9403 3
 7 -7 -6 607.39 81.1315 1
 7 -7 -6 653.398 77.2354 3
 -7 -7 5 446.592 67.1403 3
 7 -7 -5 480.839 70.4885 3
 7 -7 -5 368.95 62.9399 1
 -7 -7 4 263.612 51.9068 3
 7 -7 -4 343.532 63.9426 1
 7 -7 -3 615.355 79.1082 1
 -7 -7 3 617.393 76.2763 3
 -7 -7 2 431.22 61.5168 3
 7 -7 -2 345.804 62.2921 1
 7 -7 -1 72.746 41.8252 1
 7 -7 0 358.061 59.919 1
 -7 -7 0 423.891 65.7859 4
 -7 -7 -1 64.3552 40.8052 5
 7 -7 1 9.32866 39.8992 1
 -7 -7 -1 36.6603 35.2332 4
 7 -7 2 37.6352 46.6931 1
 -7 -7 -2 46.5623 42.072 5
 -7 -7 -2 46.568 44.1977 4
 -7 -7 -3 492.77 71.8695 5
 -7 -7 -3 550.856 74.1913 4
 7 -7 3 419.279 71.8077 1
 -7 -7 -4 233.446 54.6505 5
 -7 -7 -4 234.303 59.5335 4
 7 -7 4 261.149 58.4313 1
 -7 -6 9 78.794 42.9787 3
 7 -6 -9 70.8707 48.0812 3
 -7 -6 8 1447.53 120.128 3
 7 -6 -8 1484.7 121.792 3
 -7 -6 7 92.0964 43.1849 3
 7 -6 -7 157.32 47.3717 3
 7 -6 -7 139.63 49.5295 1
 -7 -6 6 44.5418 44.2361 3
 7 -6 -6 52.5918 36.8032 3
 7 -6 -6 99.4093 44.8747 1
 -7 -6 5 231.019 50.2357 3
 7 -6 -5 176.336 44.9506 1
 7 -6 -5 306.524 56.0461 3
 -7 -6 4 402.444 61.4048 3
 7 -6 -4 405.803 62.3494 1
 -7 -6 3 495.117 62.6057 3
 7 -6 -3 449.055 66.843 1
 7 -6 -2 108.993 38.6326 1
 -7 -6 2 90.1254 35.203 3
 7 -6 -1 1327.41 104.68 1
 -7 -6 0 341.314 60.9003 5
 7 -6 0 327.804 56.8352 1
 -7 -6 0 279.334 57.1122 4
 -7 -6 -1 123.875 44.7802 5
 7 -6 1 153.452 46.5807 1
 -7 -6 -1 185.824 48.3301 4
 7 -6 2 302.602 59.8541 1
 -7 -6 -2 206.826 51.1842 5
 -7 -6 -2 243.269 53.9922 4
 -7 -6 -3 267.834 56.7333 5
 -7 -6 -3 139.036 51.943 4
 7 -6 3 201.751 50.8218 1
 -7 -6 -4 1245.75 109.192 5
 -7 -6 -4 1033.54 102.531 4
 -7 -6 -5 285.797 59.0418 5
 -7 -6 -5 248.127 55.2254 4
 -7 -5 10 573.896 81.4248 3
 7 -5 -10 648.609 87.1668 3
 -7 -5 9 1140.35 104.323 3
 7 -5 -9 933.394 97.9122 3
 -7 -5 8 382.4 64.1996 3
 7 -5 -8 408.491 68.58 3
 -7 -5 7 69.9369 36.0357 3
 7 -5 -7 123.357 39.2094 3
 7 -5 -6 841.236 86.8422 3
 -7 -5 6 888.759 86.7945 3
 7 -5 -5 203.955 50.5925 1
 -7 -5 5 200.649 49.7832 3
 7 -5 -5 141.093 46.3623 3
 7 -5 -4 675.596 76.7 1
 -7 -5 4 522.509 66.0345 3
 7 -5 -4 646.12 69.08 3
 -7 -5 3 475.042 60.5893 3
 7 -5 -3 621.463 71.9059 1
 7 -5 -2 742.326 76.1338 1
 -7 -5 2 597.419 67.1931 3
 -7 -5 1 323.219 62.7193 5
 -7 -5 1 421.812 66.3275 4
 7 -5 -1 477.918 65.2187 1
 -7 -5 0 754.323 82.2046 5
 -7 -5 0 820.115 83.8703 4
 7 -5 0 792.54 78.3926 1
 -7 -5 -1 534.193 70.8897 5
 -7 -5 -1 348.046 62.217 4
 7 -5 2 94.1991 39.568 1
 -7 -5 -2 34.6567 42.4311 5
 -7 -5 -2 104.339 46.7464 4
 -7 -5 -3 1133.07 100.706 5
 -7 -5 -3 1077.33 100.135 4
 -7 -5 -4 305.993 60.1349 5
 -7 -5 -4 354.838 63.5105 4
 -7 -5 -5 242.038 53.0316 5
 -7 -5 -5 144.383 53.951 8
 -7 -5 -5 234.684 52.2842 4
 -7 -5 -5 214.008 54.3279 2
 -7 -5 -6 261.568 58.593 5
 -7 -5 -6 407.085 70.7795 8
 -7 -5 -6 304.796 61.5486 7
 -7 -5 -6 325.243 62.7542 4
 -7 -5 -6 260.889 59.1787 6
 -7 -5 -6 247.92 61.8324 2
 -7 -4 11 106.288 48.7855 3
 7 -4 -11 162.63 58.5731 3
 -7 -4 10 65.7381 39.4288 3
 7 -4 -10 68.2889 46.3208 3
 -7 -4 9 118.268 41.9169 3
 7 -4 -9 93.2344 42.2336 3
 -7 -4 8 17.4248 34.2641 3
 7 -4 -8 -8.86603 40.033 3
 -7 -4 7 75.0518 36.395 3
 7 -4 -7 58.7261 37.2836 3
 -7 -4 6 342.538 57.6613 3
 7 -4 -6 323.713 54.8199 3
 -7 -4 5 362.419 58.3791 3
 7 -4 -5 436.919 60.2631 3
 -7 -4 4 157.489 42.3503 3
 7 -4 -4 138.034 39.833 1
 7 -4 -4 206.866 42.0296 3
 7 -4 -3 990.686 83.06 1
 -7 -4 3 779.993 73.9122 3
 -7 -4 2 250.175 45.2465 3
 7 -4 -2 317.993 50.3251 1
 7 -4 -1 -27.3252 28.6434 1
 -7 -4 1 -7.89981 35.0531 5
 -7 -4 1 -7.8835 33.7085 4
 -7 -4 0 326.42 56.1399 5
 -7 -4 0 175.146 46.1151 4
 7 -4 0 368.158 54.9358 1
 -7 -4 -1 218.204 48.0335 5
 -7 -4 -1 259.148 51.8209 4
 -7 -4 -2 431.984 62.2477 5
 -7 -4 -2 425.706 62.922 4
 -7 -4 -3 34.4439 39.5749 5
 -7 -4 -3 60.6975 39.8507 4
 -7 -4 -4 189.212 52.6344 5
 -7 -4 -4 229.428 54.6528 7
 -7 -4 -4 118.297 47.3606 4
 -7 -4 -4 160.97 55.8854 6
 -7 -4 -4 187.373 51.3002 2
 -7 -4 -5 554.398 75.8596 5
 -7 -4 -5 280.283 57.1957 8
 -7 -4 -5 421.347 65.0992 7
 -7 -4 -5 455.956 70.1833 4
 -7 -4 -5 574.753 75.2718 6
 -7 -4 -5 309.144 57.3959 2
 -7 -4 -6 647.229 83.1965 5
 -7 -4 -6 747.593 82.9686 8
 -7 -4 -6 855.228 88.6724 7
 -7 -4 -6 646.105 85.8818 4
 -7 -4 -6 653.005 81.1975 6
 -7 -4 -6 669.098 81.494 2
 -7 -4 -7 245.415 61.6238 5
 -7 -4 -7 212.506 53.5629 8
 -7 -4 -7 147.677 57.0183 7
 -7 -4 -7 248.539 61.7911 4
 -7 -4 -7 238.446 60.473 6
 -7 -4 -7 227.856 60.5014 2
 -7 -3 12 146.24 50.616 3
 7 -3 -12 118.235 49.1069 8
 7 -3 -12 204.677 62.6506 3
 -7 -3 11 293.26 58.4301 3
 7 -3 -11 260.599 55.897 8
 7 -3 -11 286.257 58.618 3
 -7 -3 10 418.898 65.8665 3
 7 -3 -10 471.627 66.1963 8
 7 -3 -10 435.162 68.3085 3
 -7 -3 9 341.08 60.367 3
 7 -3 -9 432.98 63.9552 8
 7 -3 -9 378.406 63.028 3
 -7 -3 8 183.924 45.7312 3
 7 -3 -8 145.268 45.6181 3
 -7 -3 7 287.814 55.3447 3
 7 -3 -7 491.517 64.49 3
 -7 -3 6 552.545 67.7403 3
 7 -3 -6 567.197 67.9827 3
 -7 -3 5 529.793 63.807 3
 7 -3 -5 599.714 65.6758 3
 7 -3 -4 2865.89 155.11 3
 -7 -3 4 3007.46 158.474 3
 7 -3 -4 3402.96 163.615 1
 -7 -3 3 551.986 60.4369 3
 7 -3 -3 458.82 56.2901 1
 7 -3 -2 3268.91 161.923 1
 -7 -3 1 809.203 80.4166 5
 -7 -3 1 956.474 86.3535 4
 -7 -3 0 398.896 57.8333 5
 -7 -3 0 301.366 48.9248 4
 -7 -3 -1 330.244 56.4402 5
 -7 -3 -1 346.794 55.1329 4
 -7 -3 -2 166.271 43.2542 5
 -7 -3 -2 167.719 45.6363 7
 -7 -3 -2 135.429 40.8742 4
 -7 -3 -2 121.325 41.4924 6
 -7 -3 -2 115.284 40.9995 2
 -7 -3 -3 513.108 67.1642 5
 -7 -3 -3 506.858 71.9453 7
 -7 -3 -3 600.786 71.2094 4
 -7 -3 -3 445.385 66.6639 6
 -7 -3 -3 536.257 70.0896 2
 -7 -3 -4 104.02 41.2992 5
 -7 -3 -4 129.987 43.7701 7
 -7 -3 -4 87.6231 36.203 4
 -7 -3 -4 140.022 45.9899 6
 -7 -3 -4 175.33 46.5989 2
 -7 -3 -5 535.349 73.2495 5
 -7 -3 -5 607.288 71.6323 8
 -7 -3 -5 598.251 76.2712 7
 -7 -3 -5 643.769 79.5953 4
 -7 -3 -5 556.95 76.0276 6
 -7 -3 -5 488.297 71.3234 2
 -7 -3 -6 247.386 52.6239 5
 -7 -3 -6 113.536 41.8139 8
 -7 -3 -6 226.895 57.4447 7
 -7 -3 -6 144.53 50.1266 4
 -7 -3 -6 142.782 53.2471 6
 -7 -3 -6 254.981 56.3978 2
 -7 -3 -7 149.249 47.4135 5
 -7 -3 -7 88.4489 46.8363 7
 -7 -3 -7 201.611 54.3127 4
 -7 -3 -7 128.798 53.3874 6
 -7 -3 -7 161.584 51.234 2
 -7 -2 12 221.559 51.4189 3
 7 -2 -12 238.476 58.0191 8
 7 -2 -12 120.301 45.6447 3
 -7 -2 11 139.599 49.46 3
 7 -2 -11 47.0783 39.6082 8
 7 -2 -11 154.504 51.3117 3
 -7 -2 10 660.715 76.0457 3
 7 -2 -10 470.141 70.2713 8
 7 -2 -10 646.828 80.4328 3
 -7 -2 9 494.83 68.0924 3
 7 -2 -9 481.602 67.4525 8
 7 -2 -9 465.902 70.0563 3
 -7 -2 8 145.8 42.7472 3
 7 -2 -8 139.739 41.5118 8
 7 -2 -8 249.395 54.7003 3
 -7 -2 7 399.447 58.5519 3
 7 -2 -7 310.63 53.1909 8
 7 -2 -7 478.076 64.2171 3
 -7 -2 6 638.516 66.094 3
 7 -2 -6 605.168 63.6223 8
 -7 -2 5 911.521 78.6863 3
 7 -2 -5 800.084 76.4108 3
 7 -2 -4 3674.08 179.021 3
 -7 -2 4 3943.98 183.805 3
 -7 -2 3 834.725 72.1697 3
 -7 -2 1 1582.77 107.075 4
 -7 -2 1 1521.99 106.726 5
 -7 -2 0 1552.49 105.45 4
 -7 -2 0 1529.6 106.71 5
 -7 -2 -1 2307.78 136.453 4
 -7 -2 -1 2501.83 142.686 7
 -7 -2 -1 2494.85 143.67 6
 -7 -2 -1 2240.86 137.536 2
 -7 -2 -1 2260.68 135.6 5
 -7 -2 -2 324.4 57.3203 5
 -7 -2 -2 432.523 62.4274 7
 -7 -2 -2 357.01 55.9085 4
 -7 -2 -2 476.477 64.4498 6
 -7 -2 -2 453.544 63.9526 2
 -7 -2 -3 55.4527 40.4385 5
 -7 -2 -3 8.1076 36.6474 7
 -7 -2 -3 103.996 41.3823 4
 -7 -2 -3 49.0217 36.2892 6
 -7 -2 -3 62.3989 42.4176 2
 -7 -2 -4 116.215 43.7115 5
 -7 -2 -4 161.635 47.54 7
 -7 -2 -4 168.26 47.5454 4
 -7 -2 -4 137.005 44.499 6
 -7 -2 -4 147.399 48.77 2
 -7 -2 -5 52.3942 40.1516 5
 -7 -2 -5 89.1745 44.2784 7
 -7 -2 -5 26.527 41.9863 4
 -7 -2 -5 125.866 48.893 6
 -7 -2 -5 34.4588 42.1639 2
 -7 -2 -6 440.523 65.7371 5
 -7 -2 -6 411.518 69.6422 7
 -7 -2 -6 390.492 63.763 4
 -7 -2 -6 396.372 69.3534 6
 -7 -2 -6 443.666 70.0179 2
 -7 -2 -7 414.848 66.8054 5
 -7 -2 -7 332.679 64.1512 7
 -7 -2 -7 420.754 66.2183 4
 -7 -2 -7 424.638 69.8204 6
 -7 -2 -7 303.771 63.3146 2
 -7 -2 -8 233.25 56.7761 5
 -7 -2 -8 152.981 52.4192 7
 -7 -2 -8 307.104 64.5583 4
 -7 -2 -8 164.934 52.2644 6
 -7 -2 -8 197.903 57.8472 2
 -7 -1 13 583.672 79.5907 1
 -7 -1 12 66.9956 44.7242 3
 -7 -1 12 18.2499 39.0627 1
 7 -1 -12 80.1023 45.2541 8
 7 -1 -12 98.9545 46.2383 3
 -7 -1 11 18.4445 31.8936 3
 7 -1 -11 28.5194 37.3966 8
 7 -1 -11 38.1348 41.5454 3
 -7 -1 10 123.633 39.9622 3
 7 -1 -10 53.8844 40.6373 8
 7 -1 -10 72.978 35.9736 3
 -7 -1 9 227.019 54.1322 3
 7 -1 -9 278.714 52.4941 8
 7 -1 -9 147.573 50.8969 3
 -7 -1 8 405.976 62.3326 3
 7 -1 -8 348.905 54.9242 8
 7 -1 -8 377.531 57.9947 3
 -7 -1 7 15.0211 28.1855 3
 7 -1 -7 29.6967 30.517 8
 7 -1 -7 77.2141 36.0646 3
 -7 -1 6 254.053 48.3952 3
 7 -1 -6 265.268 47.1661 8
 7 -1 -6 245.765 47.6476 3
 -7 -1 5 633.277 64.858 3
 7 -1 -5 625.826 63.5899 8
 7 -1 -5 652.587 66.7404 3
 7 -1 -4 5133.13 226.576 3
 7 -1 -4 5178.64 227.762 8
 -7 -1 4 5346.31 228.383 3
 7 -1 -3 1600.52 102.529 8
 -7 -1 3 1638.85 101.948 3
 -7 -1 1 1241.16 93.2116 4
 7 -1 -1 1384.28 93.3916 7
 7 -1 -1 1245.15 88.8125 6
 -7 -1 1 1355.69 94.4841 5
 -7 -1 0 733.348 70.442 5
 -7 -1 0 554.41 62.0508 4
 -7 -1 0 692.026 68.0168 2
 -7 -1 -1 322.337 51.6108 5
 -7 -1 -1 327.212 54.4134 7
 -7 -1 -1 461.628 57.9179 4
 -7 -1 -1 459.892 60.5956 6
 -7 -1 -1 382.956 56.9301 2
 -7 -1 -2 171.91 42.6709 5
 -7 -1 -2 104.877 38.9421 7
 -7 -1 -2 151.645 42.1538 4
 -7 -1 -2 105.625 41.6897 6
 -7 -1 -2 122.427 43.3222 2
 -7 -1 -3 1475.64 106.624 5
 -7 -1 -3 1430.58 105.649 4
 -7 -1 -3 1444.31 108.653 7
 -7 -1 -3 1517.17 110.442 6
 -7 -1 -3 1294.87 105.346 2
 -7 -1 -4 206.127 47.4203 5
 -7 -1 -4 241.492 55.773 7
 -7 -1 -4 208.894 48.9811 4
 -7 -1 -4 159.414 50.138 6
 -7 -1 -4 177.114 45.7137 2
 -7 -1 -5 242.457 50.2782 5
 -7 -1 -5 105.351 45.6154 7
 -7 -1 -5 101.63 39.1723 4
 -7 -1 -5 106.373 46.0532 6
 -7 -1 -5 246.851 59.0384 2
 -7 -1 -6 52.9796 41.8891 5
 -7 -1 -6 27.7708 41.8056 7
 -7 -1 -6 -17.91 42.4822 4
 -7 -1 -6 28.0459 37.601 6
 -7 -1 -6 71.8803 45.2093 2
 -7 -1 -7 233.541 58.4453 5
 -7 -1 -7 204.342 57.4742 7
 -7 -1 -7 216.865 56.826 4
 -7 -1 -7 176.79 60.2985 6
 -7 -1 -7 179.759 53.6036 2
 -7 -1 -8 649.58 80.6828 5
 -7 -1 -8 540.037 81.6257 7
 -7 -1 -8 515.597 75.0639 4
 -7 -1 -8 534.632 80.5029 6
 -7 -1 -8 535.207 81.2223 2
 7 0 -12 167.19 48.7581 5
 -7 0 12 37.5668 37.9228 1
 7 0 -12 90.7502 47.9506 8
 7 0 -12 177.453 56.7741 3
 7 0 -12 129.895 46.1533 4
 -7 0 11 61.6302 39.8862 1
 7 0 -11 158.783 48.6097 5
 7 0 -11 105.58 49.7157 8
 7 0 -11 104.474 47.2239 3
 7 0 -11 97.3751 46.4661 4
 -7 0 10 475.706 69.2439 3
 -7 0 10 532.137 66.7826 1
 7 0 -10 522.956 70.8073 5
 7 0 -10 427.066 68.8174 8
 7 0 -10 563.104 75.9974 3
 7 0 -10 558.372 71.074 4
 -7 0 9 -7.5774 31.7678 1
 -7 0 9 58.6213 40.944 3
 7 0 -9 15.6525 36.5366 5
 7 0 -9 -8.5893 34.5396 8
 7 0 -9 15.6975 34.1962 4
 -7 0 8 1068.35 91.8891 3
 7 0 -8 945.661 83.336 5
 7 0 -8 1027.48 91.4731 8
 7 0 -8 873.726 81.8646 4
 -7 0 7 297.971 52.7585 3
 7 0 -7 307.937 49.6745 5
 7 0 -7 283.006 50.5906 8
 7 0 -7 308.86 48.0482 4
 -7 0 6 -6.9768 27.4407 3
 7 0 -6 26.8095 26.9539 5
 7 0 -6 43.5503 28.548 8
 7 0 -6 -6.72311 24.5745 4
 7 0 -5 2395.46 136.933 5
 7 0 -5 2441.2 138.811 8
 7 0 -5 2775.44 142.867 4
 -7 0 5 2490.21 137.645 3
 -7 0 4 -12.0466 30.3042 3
 7 0 -4 12.8677 28.0334 5
 7 0 -4 6.60844 28.7939 8
 7 0 -4 -18.1116 28.6372 7
 7 0 -4 -45.2186 31.1165 4
 7 0 -4 12.0052 30.2001 6
 7 0 -3 5918.66 246.284 5
 7 0 -3 5796.51 245.351 8
 7 0 -3 5450.25 241.46 7
 7 0 -3 5933.84 247.22 4
 7 0 -3 5541.09 241.255 6
 -7 0 3 5517.29 236.015 3
 7 0 -2 5513.06 239.236 5
 7 0 -2 5455.46 238.892 7
 7 0 -2 5856.35 242.448 4
 7 0 -2 5291.64 236.387 6
 -7 0 1 363.964 48.993 5
 -7 0 1 320.227 48.3635 4
 7 0 -1 290.602 48.0361 7
 7 0 -1 278.93 46.902 6
 -7 0 0 1805.14 114.396 4
 -7 0 0 2231.39 124.564 7
 -7 0 0 2076.64 123.391 6
 -7 0 0 2059.02 120.576 2
 -7 0 0 2244.4 122.895 5
 -7 0 -1 3997.12 187.459 4
 -7 0 -1 3825.17 188.018 7
 -7 0 -1 3796.32 188.035 6
 -7 0 -1 4029.13 189.019 2
 -7 0 -1 3856.32 184.769 5
 -7 0 -2 6.7524 29.4235 5
 -7 0 -2 21.7713 31.6221 7
 -7 0 -2 27.2276 33.7693 4
 -7 0 -2 29.1965 32.3886 6
 -7 0 -2 6.99427 29.327 2
 -7 0 -3 49.9095 32.8014 5
 -7 0 -3 53.8593 37.1108 7
 -7 0 -3 50.4408 36.303 4
 -7 0 -3 69.8073 40.137 6
 -7 0 -3 89.1928 40.9127 2
 -7 0 -4 670.925 71.6234 5
 -7 0 -4 554.926 68.1901 7
 -7 0 -4 557.163 65.0172 4
 -7 0 -4 469.645 66.334 6
 -7 0 -4 466.901 63.8906 2
 -7 0 -5 79.8201 37.9982 5
 -7 0 -5 129.874 40.5501 7
 -7 0 -5 40.4256 36.0182 4
 -7 0 -5 157.163 45.834 6
 -7 0 -5 142.914 46.8687 2
 -7 0 -6 322.474 59.9363 5
 -7 0 -6 348.466 65.5473 7
 -7 0 -6 334.028 60.4766 4
 -7 0 -6 295.854 61.8449 6
 -7 0 -6 268.583 56.5526 2
 -7 0 -7 306.005 60.6631 5
 -7 0 -7 222.922 53.621 7
 -7 0 -7 190.434 55.6728 4
 -7 0 -7 195.799 54.7734 6
 -7 0 -7 94.5801 43.118 2
 -7 0 -8 294.491 59.1527 5
 -7 0 -8 244.698 62.2359 7
 -7 0 -8 210.577 51.4723 4
 -7 0 -8 329.403 64.5776 6
 -7 0 -8 289.794 64.9232 2
 -7 1 12 77.3429 47.3725 1
 7 1 -12 135.241 50.6812 5
 7 1 -12 101.25 47.3731 8
 7 1 -12 86.9828 46.6588 4
 -7 1 11 81.8438 41.0871 1
 7 1 -11 45.953 35.3438 5
 7 1 -11 -9.66662 40.5522 8
 7 1 -11 64.6082 39.4877 4
 -7 1 10 34.0177 36.4348 1
 7 1 -10 121.696 47.8507 5
 7 1 -10 55.1376 40.1057 8
 7 1 -10 113.36 45.1317 4
 -7 1 9 206.221 46.5672 1
 7 1 -9 246.691 52.4904 5
 7 1 -9 148.544 46.2491 8
 7 1 -9 263.834 52.171 4
 -7 1 8 361.275 54.8771 1
 7 1 -8 358.181 56.694 5
 7 1 -8 431.379 60.2391 8
 7 1 -8 366.709 57.1792 4
 -7 1 7 20.5181 28.6819 1
 7 1 -7 14.8717 30.5522 5
 7 1 -7 15.7971 29.6262 8
 7 1 -7 44.7013 33.6475 4
 -7 1 6 221.882 42.5907 1
 -7 1 6 217.255 46.1952 3
 7 1 -6 243.21 46.7401 5
 7 1 -6 211.211 44.9705 8
 7 1 -6 311.139 48.3398 7
 7 1 -6 294.149 48.3936 4
 7 1 -6 247.297 43.6834 6
 -7 1 5 658.697 64.8241 3
 7 1 -5 615.364 66.3425 5
 7 1 -5 601.769 67.5107 8
 7 1 -5 629.246 64.0475 7
 7 1 -5 552.502 63.9758 4
 7 1 -5 463.765 58.8583 6
 7 1 -4 5537.88 242.123 5
 7 1 -4 5626.52 243.068 8
 7 1 -4 5353.53 237.623 7
 7 1 -4 5398.97 239.975 4
 7 1 -4 5546.69 238.812 6
 -7 1 4 5116.38 230.352 3
 7 1 -3 1712.38 109.992 5
 7 1 -3 1638.73 108.251 7
 7 1 -3 1700.76 110.127 4
 7 1 -3 1661.71 109.128 6
 -7 1 3 1732.95 102.456 3
 7 1 -2 615.24 65.0801 5
 7 1 -2 531.966 62.2839 7
 7 1 -2 583.644 63.2948 4
 7 1 -2 504.917 59.4401 6
 -7 1 1 1336.05 90.0571 7
 7 1 -1 1375.08 99.2606 7
 -7 1 1 1450.5 91.8827 6
 -7 1 1 1150.77 85.0147 2
 7 1 -1 1225.08 94.4137 6
 -7 1 0 619.509 63.2262 7
 7 1 0 551.374 66.0934 7
 -7 1 0 649.209 66.1915 6
 -7 1 0 677.035 65.9667 2
 7 1 0 677.429 70.0947 6
 -7 1 -1 396.098 52.7825 7
 -7 1 -1 391.615 53.9227 6
 -7 1 -1 367.616 52.7028 2
 -7 1 -2 140.844 41.6222 7
 -7 1 -2 120.536 36.0054 6
 -7 1 -2 217.421 44.0325 2
 -7 1 -3 1381.77 104.51 7
 -7 1 -3 1483.85 107.669 6
 -7 1 -3 1309.64 101.848 2
 -7 1 -4 216.465 48.9096 7
 -7 1 -4 210.093 47.8715 6
 -7 1 -4 186.768 46.5955 2
 -7 1 -5 171.261 49.1128 7
 -7 1 -5 233.332 53.1363 6
 -7 1 -5 200.238 52.7377 2
 -7 1 -6 27.1985 37.2696 7
 -7 1 -6 36.6475 40.6757 6
 -7 1 -6 80.2648 42.326 2
 -7 1 -7 259.462 55.9867 7
 -7 1 -7 281.692 60.5403 6
 -7 1 -7 322.507 62.2773 2
 -7 1 -8 444.939 74.7078 7
 -7 1 -8 633.332 86.3167 6
 -7 1 -8 470.517 78.6119 2
 -7 2 12 189.141 57.6687 1
 7 2 -12 260.223 56.124 5
 7 2 -12 274.128 58.1794 8
 7 2 -12 180.56 53.0108 4
 -7 2 11 103.542 44.001 1
 7 2 -11 28.5583 42.2954 5
 7 2 -11 38.9551 35.6644 8
 7 2 -11 162.463 54.3931 4
 -7 2 10 753.522 83.1841 1
 7 2 -10 725 83.5311 5
 7 2 -10 652.643 83.9624 8
 7 2 -10 699.638 83.7337 4
 -7 2 9 458.264 66.4232 1
 7 2 -9 378.458 62.9247 5
 7 2 -9 405.32 64.717 4
 -7 2 8 210.6 46.0303 1
 7 2 -8 122.803 45.2672 5
 7 2 -8 170.126 45.3619 8
 7 2 -8 104.055 41.1452 7
 7 2 -8 139.575 45.3953 4
 7 2 -8 163.842 43.9723 6
 -7 2 7 321.371 52.8153 1
 7 2 -7 439.782 60.6316 5
 7 2 -7 375.276 55.3641 8
 7 2 -7 375.338 58.5153 7
 7 2 -7 495.989 62.1935 4
 7 2 -7 442.082 62.102 6
 -7 2 6 417.239 54.1287 1
 7 2 -6 441.239 61.0899 5
 7 2 -6 580.711 67.5444 8
 7 2 -6 467.13 60.6972 7
 7 2 -6 548.989 65.7276 4
 7 2 -6 461.744 60.0263 6
 -7 2 5 943.366 78.7864 1
 7 2 -5 888.58 81.3842 5
 7 2 -5 1068.02 89.9022 8
 7 2 -5 880.334 80.874 7
 7 2 -5 709.673 75.6702 4
 7 2 -5 964.173 81.1269 6
 -7 2 4 3597.83 173.463 1
 7 2 -4 3760.08 186.183 5
 7 2 -4 3611.93 184.201 8
 7 2 -4 3541.25 182.396 7
 7 2 -4 3857.44 188.625 4
 7 2 -4 3727.34 184.089 6
 7 2 -3 826.179 75.8661 5
 7 2 -3 775.484 77.3937 7
 7 2 -3 932.468 79.798 4
 7 2 -3 869.034 79.8132 6
 7 2 -2 2690.06 147.788 5
 7 2 -2 2540.2 145.049 7
 7 2 -2 2606.26 146.301 4
 7 2 -2 2540.86 144.851 6
 7 2 -1 1600.07 113.235 7
 7 2 -1 1826.22 117.577 6
 7 2 0 1446.61 107.959 7
 7 2 0 1651.15 111.927 6
 -7 2 -1 2630.03 135.945 7
 7 2 1 2193.78 141.763 7
 -7 2 -1 2382.61 132.737 6
 -7 2 -1 2331.68 129.722 2
 7 2 1 2302.18 143.401 6
 -7 2 -2 492.993 59.2293 7
 -7 2 -2 593.338 63.7219 6
 -7 2 -3 44.1401 35.9977 7
 -7 2 -3 37.0436 36.7803 6
 -7 2 -3 57.3292 36.5787 2
 -7 2 -4 181.991 44.4421 7
 -7 2 -4 207.401 45.7842 6
 -7 2 -4 193.398 47.6256 2
 -7 2 -5 59.0598 33.9775 7
 -7 2 -5 102.235 41.0775 6
 -7 2 -5 24.9461 34.9101 2
 -7 2 -6 365.398 65.828 2
 -7 2 -6 386.487 64.1952 7
 -7 2 -6 380.968 66.5266 6
 -7 2 -7 331.533 69.3597 2
 -7 2 -7 372.847 68.5925 7
 -7 2 -7 424.162 73.2767 6
 -7 2 -8 120.191 52.0702 2
 -7 2 -8 232.428 57.1143 7
 -7 2 -8 182.846 53.4833 6
 -7 3 12 246.227 57.9714 1
 7 3 -12 123.861 46.9346 5
 7 3 -12 132.211 48.5552 8
 7 3 -12 238.208 58.517 4
 -7 3 11 282.992 60.759 1
 7 3 -11 216.461 57.2307 5
 7 3 -11 323.227 63.1544 8
 7 3 -11 286.441 64.7446 4
 -7 3 10 379.23 66.4043 1
 7 3 -10 554.78 74.4651 5
 7 3 -10 386.017 64.7122 8
 7 3 -10 480.799 70.7846 4
 -7 3 9 367.213 62.025 1
 7 3 -9 340.83 60.4005 5
 7 3 -9 271.614 57.553 8
 7 3 -9 258.934 53.6745 7
 7 3 -9 305.611 57.644 4
 7 3 -9 217.764 55.1743 6
 -7 3 8 74.3001 37.4286 1
 7 3 -8 145.483 46.6245 5
 7 3 -8 131.006 47.578 8
 7 3 -8 129.151 41.8572 7
 7 3 -8 111.576 44.4896 4
 7 3 -8 72.8409 37.3216 6
 -7 3 7 320.074 56.1804 1
 7 3 -7 354.591 59.5933 5
 7 3 -7 404.238 62.4233 8
 7 3 -7 352.671 59.3728 7
 7 3 -7 487.743 66.2197 4
 7 3 -7 480.204 64.8757 6
 -7 3 6 590.505 68.7651 1
 7 3 -6 609.28 73.2838 5
 7 3 -6 588.094 70.3558 8
 7 3 -6 605.552 72.626 7
 7 3 -6 699.05 76.1684 4
 7 3 -6 684.952 74.03 6
 -7 3 5 699.821 71.1223 1
 7 3 -5 528.88 67.3602 5
 7 3 -5 586.077 70.4413 8
 7 3 -5 599.102 68.8651 7
 7 3 -5 639.671 73.0084 4
 7 3 -5 603.367 67.5184 6
 -7 3 4 2757.54 156.733 1
 7 3 -4 3274.81 171.304 5
 7 3 -4 3380.96 171.741 7
 7 3 -4 2933.78 165.979 4
 7 3 -4 3301.11 170.944 6
 7 3 -3 545.65 66.595 5
 7 3 -3 490.089 65.1173 7
 7 3 -3 455.8 61.361 4
 7 3 -3 647.053 71.3436 6
 7 3 -2 2696.87 159.173 5
 7 3 -2 3142.44 167.759 7
 7 3 -2 2799.32 161.251 4
 7 3 -2 3140.5 166.311 6
 7 3 -1 850.489 86.3302 7
 7 3 -1 901.922 85.8491 6
 7 3 0 346.249 60.3921 7
 7 3 0 388.672 61.7137 6
 7 3 1 322.887 61.1341 7
 7 3 1 372.854 61.4177 6
 7 3 2 119.443 43.5974 7
 7 3 2 58.6476 37.9271 6
 -7 3 -4 108.781 43.4202 7
 -7 3 -4 164.706 43.8247 6
 -7 3 -4 122.42 44.646 2
 -7 3 -5 685.703 79.9049 2
 -7 3 -5 575.659 74.3296 7
 -7 3 -5 597.302 74.2411 6
 -7 3 -6 177.66 51.7488 2
 -7 3 -6 107.268 49.3024 7
 -7 3 -6 89.8175 46.5866 6
 -7 3 -7 113.615 49.1852 2
 -7 3 -7 171.638 56.1837 7
 -7 3 -7 190.773 55.6307 6
 -7 4 11 242.551 60.7234 1
 7 4 -11 111.357 42.7368 5
 7 4 -11 157.699 48.4487 8
 7 4 -11 133.434 44.777 7
 7 4 -11 152.433 50.6587 4
 7 4 -11 191.647 46.4273 6
 -7 4 10 77.1208 37.946 1
 7 4 -10 38.8105 44.5878 5
 7 4 -10 66.6954 43.0511 8
 7 4 -10 46.2696 43.2306 7
 7 4 -10 29.1886 40.8209 4
 7 4 -10 37.1872 40.536 6
 -7 4 9 64.2966 39.3791 1
 7 4 -9 102.292 51.803 5
 7 4 -9 83.076 45.2241 8
 7 4 -9 152.721 46.5253 7
 7 4 -9 46.5961 42.8982 4
 7 4 -9 117.238 42.8745 6
 -7 4 8 8.73626 37.3509 1
 7 4 -8 8.92549 39.6004 5
 7 4 -8 8.95642 39.0216 8
 7 4 -8 -8.68473 36.4095 7
 7 4 -8 8.95175 43.7659 4
 7 4 -8 -8.70315 32.6347 6
 -7 4 7 66.5609 38.898 1
 7 4 -7 17.2401 34.7258 5
 7 4 -7 95.7493 41.3393 8
 7 4 -7 92.8757 42.5281 7
 7 4 -7 86.4149 39.0751 4
 7 4 -7 93.2662 43.8739 6
 -7 4 6 357.421 60.0458 1
 7 4 -6 268.925 55.4576 5
 7 4 -6 372.929 59.8358 8
 7 4 -6 429.437 64.604 7
 7 4 -6 404.307 64.7012 4
 7 4 -6 489.109 65.9506 6
 7 4 -5 373.46 60.8883 5
 7 4 -5 447.921 61.6481 8
 7 4 -5 373.382 59.6151 7
 7 4 -5 464.94 64.768 4
 7 4 -5 374.683 59.4216 6
 -7 4 5 448.361 62.5126 1
 7 4 -4 172.086 51.5904 5
 7 4 -4 113.511 38.6878 7
 7 4 -4 139.826 47.4679 4
 7 4 -4 122.342 41.8117 6
 7 4 -3 819.311 82.434 5
 7 4 -3 707.053 78.5364 7
 7 4 -3 978.13 88.7805 4
 7 4 -3 821.018 82.5883 6
 7 4 -2 217.662 49.8066 5
 7 4 -2 213.99 47.9319 7
 7 4 -2 250.883 49.9963 4
 7 4 -2 285.688 50.8781 6
 7 4 -1 33.2537 38.8109 7
 7 4 -1 -8.22626 40.2193 6
 7 4 0 236.664 52.6922 7
 7 4 0 266.944 54.7695 6
 7 4 1 336.93 59.0646 7
 7 4 1 229.803 52.2135 6
 7 4 2 363.807 61.6536 7
 7 4 2 400.016 65.1261 6
 7 4 3 109.425 47.7679 7
 7 4 3 8.95302 34.4285 6
 7 4 4 197.895 53.9879 7
 7 4 4 212.711 56.2996 6
 -7 4 -7 225.862 62.7577 2
 -7 4 -7 331.765 63.7005 7
 -7 4 -7 275.025 59.0979 6
 7 5 -11 79.1031 41.6716 8
 7 5 -11 141.895 54.5813 7
 7 5 -11 244.464 62.3227 6
 -7 5 10 622.004 85.0669 1
 7 5 -10 588.272 82.0547 5
 7 5 -10 614.782 75.8761 8
 7 5 -10 798.944 91.1421 7
 7 5 -10 559.901 80.5421 4
 7 5 -10 505.084 75.3809 6
 -7 5 9 876.844 93.5338 1
 7 5 -9 873.564 93.9078 5
 7 5 -9 920.32 94.0498 8
 7 5 -9 958.741 94.8269 7
 7 5 -9 836.953 93.7445 4
 7 5 -9 808.63 90.6218 6
 -7 5 8 314.156 56.5206 1
 7 5 -8 249.34 57.5419 5
 7 5 -8 219.679 51.0513 8
 7 5 -8 269.288 58.8911 7
 7 5 -8 277.831 58.2218 4
 7 5 -8 297.848 63.0197 6
 -7 5 7 53.1571 35.7154 1
 7 5 -7 89.6296 46.3958 5
 7 5 -7 89.9102 37.7784 8
 7 5 -7 126.504 53.0952 7
 7 5 -7 62.8971 41.3425 4
 7 5 -7 81.6275 46.3268 6
 7 5 -6 780.198 87.1757 5
 7 5 -6 773.094 81.8964 8
 7 5 -6 1030.79 95.9005 7
 7 5 -6 817.129 87.9763 4
 7 5 -6 831.47 90.6647 6
 -7 5 6 741.305 82.8273 1
 7 5 -5 146.725 44.3066 5
 7 5 -5 199.033 48.3923 8
 7 5 -5 86.6258 39.4371 7
 7 5 -5 172.624 43.11 4
 7 5 -5 234.652 54.2759 6
 7 5 -4 618.317 75.8221 5
 7 5 -4 557.665 71.175 7
 7 5 -4 560.291 72.9334 4
 7 5 -4 639.086 76.2244 6
 7 5 -3 502.141 76.4202 5
 7 5 -3 481.942 67.5295 7
 7 5 -3 393.398 69.0165 4
 7 5 -3 569.696 72.574 6
 7 5 -2 440.885 72.5587 5
 7 5 -2 604.955 79.2663 4
 7 5 -2 585.635 75.7198 6
 7 5 -1 533.252 71.1006 7
 7 5 -1 419.35 71.1194 4
 7 5 -1 494.116 69.7723 6
 7 5 0 725.262 81.8701 7
 7 5 0 735.027 82.3853 6
 7 5 1 602.501 77.1963 7
 7 5 1 541.465 72.5326 6
 7 5 2 27.5444 39.2764 7
 7 5 2 63.3083 43.582 6
 7 5 3 1128.12 106.338 7
 7 5 3 1134.92 105.737 6
 7 5 4 212.157 53.6552 7
 7 5 4 312.174 58.8629 6
 7 5 5 138.691 57.0626 7
 7 5 5 97.2029 48.3555 6
 7 5 6 356.23 67.5164 7
 7 5 6 319.676 65.2336 6
 7 6 -10 295.521 62.893 5
 7 6 -10 286.059 64.7723 4
 -7 6 9 110.848 50.7614 1
 7 6 -9 78.7114 44.5003 5
 7 6 -9 50.7709 51.8525 7
 7 6 -9 49.2996 38.8623 4
 7 6 -9 142.731 54.1253 6
 -7 6 8 1537.2 123.033 1
 7 6 -8 1302.23 115.486 5
 7 6 -8 1438.88 119.87 8
 7 6 -8 1467.98 121.419 4
 7 6 -8 1470.32 119.211 7
 7 6 -8 1405.1 118.623 6
 7 6 -7 138.944 53.9842 5
 7 6 -7 83.0572 41.8954 8
 7 6 -7 211.11 57.0584 7
 7 6 -7 204.294 52.4109 4
 7 6 -7 154.008 53.101 6
 -7 6 7 84.5006 45.4312 1
 7 6 -6 135.785 48.6845 5
 7 6 -6 136.082 43.1248 8
 7 6 -6 46.7744 39.3228 7
 7 6 -6 72.6345 48.829 4
 7 6 -6 75.2089 37.9112 6
 7 6 -5 215.39 54.3683 5
 7 6 -5 206.864 49.5645 8
 7 6 -5 321.377 64.0214 7
 7 6 -5 314.171 60.7736 4
 7 6 -5 276.657 57.9347 6
 7 6 -4 374.308 64.1666 5
 7 6 -4 353.052 61.0314 7
 7 6 -4 535.77 74.7685 4
 7 6 -4 336.042 60.7473 6
 7 6 -3 408.727 68.8624 5
 7 6 -3 378.983 64.8025 7
 7 6 -3 348.37 65.0396 4
 7 6 -3 327.058 63.882 6
 7 6 -2 -8.85195 50.3444 5
 7 6 -2 81.3416 44.8383 7
 7 6 -2 -26.6828 53.7823 4
 7 6 -2 54.4063 41.6498 6
 7 6 -1 1517.2 118.949 5
 7 6 -1 1454.68 117.534 7
 7 6 -1 1514.37 118.646 4
 7 6 -1 1459.4 117.978 6
 7 6 0 239.599 57.3076 7
 7 6 0 246.704 59.8487 6
 7 6 1 186.461 56.6345 7
 7 6 1 156.735 55.4766 6
 7 6 2 227.254 58.8395 7
 7 6 2 252.122 61.625 6
 7 6 3 221.689 61.3823 7
 7 6 3 199.37 57.792 6
 7 6 4 875.539 96.2248 7
 7 6 4 1074.26 100.557 6
 7 7 -8 19.4197 43.8457 5
 7 7 -8 31.1585 38.9487 7
 7 7 -8 19.4694 42.4151 4
 7 7 -8 10.4219 39.0828 6
 -7 7 8 -10.1972 43.5998 1
 7 7 -7 94.8416 47.1443 5
 7 7 -7 60.5856 45.6954 7
 7 7 -7 142.536 49.8502 4
 7 7 -7 91.1609 45.8368 6
 7 7 -6 622.254 77.9797 5
 7 7 -6 652.186 77.8213 8
 7 7 -6 542.976 78.7703 7
 7 7 -6 623.811 79.7067 4
 7 7 -6 614.199 82.8617 6
 7 7 -5 515.883 72.1577 5
 7 7 -5 231.767 60.0852 7
 7 7 -5 377.932 63.8591 4
 7 7 -5 387.825 69.4817 6
 7 7 -4 302.78 65.2529 5
 7 7 -4 313.674 64.6551 7
 7 7 -4 348.638 64.7945 4
 7 7 -4 381.602 66.8284 6
 7 7 -3 413.566 74.2499 5
 7 7 -3 723.38 83.2271 7
 7 7 -3 425.234 72.2081 4
 7 7 -3 622.401 79.3074 6
 7 7 -2 329.901 66.5073 5
 7 7 -2 422.498 70.7551 7
 7 7 -2 377.459 69.4273 4
 7 7 -2 547.892 76.2795 6
 7 7 -1 -9.19297 48.1466 5
 7 7 -1 84.7584 48.0418 7
 7 7 -1 -18.468 50.1863 4
 7 7 -1 85.0415 48.8489 6
 7 7 0 362.186 62.6584 5
 7 7 0 473.97 69.5823 7
 7 7 0 307.716 61.4283 4
 7 7 0 529.352 74.2053 6
 7 7 1 9.60347 46.9667 7
 7 7 1 76.1799 43.7475 6
 7 7 2 9.68087 50.6915 7
 7 7 2 -9.60022 46.241 6
 7 8 -6 226.952 65.0798 7
 7 8 -6 196.488 64.6598 6
 7 8 -5 938.399 100.278 7
 7 8 -5 861.271 96.64 6
 7 8 -4 128.663 51.3206 7
 7 8 -4 129.182 48.7573 6
 7 8 -3 497.76 72.4408 7
 7 8 -3 578.305 77.2374 6
 7 8 -2 280.328 60.7292 7
 7 8 -2 261.967 61.4912 6
 7 8 -1 96.6938 46.8218 7
 7 8 -1 233.539 57.893 6
 7 9 -3 10.039 38.5906 7
 7 9 -3 80.6911 50.7558 6
 -8 -7 6 336.549 63.5748 3
 -8 -7 5 451.3 68.4863 3
 8 -7 -5 329.327 65.4519 1
 8 -7 -4 78.6786 48.0863 1
 -8 -7 4 -9.2514 42.4903 3
 8 -7 -3 680.217 84.3206 1
 8 -7 -2 886.94 94.3598 1
 8 -7 -1 550.162 79.5858 1
 8 -7 0 281.449 59.919 1
 8 -7 1 48.7956 42.529 1
 -8 -7 -1 30.3804 43.306 5
 -8 -7 -1 10.1072 40.6534 4
 8 -6 -8 50.5807 47.3558 3
 8 -6 -8 181.925 52.3566 1
 -8 -6 7 714.82 84.9768 3
 8 -6 -7 714.616 84.284 3
 8 -6 -7 777.296 92.2528 1
 -8 -6 6 932.712 97.7725 3
 8 -6 -6 1160.88 106.862 1
 8 -6 -6 1281.12 106.428 3
 -8 -6 5 253.933 56.4215 3
 8 -6 -5 234.601 58.3443 1
 -8 -6 4 165.589 45.4132 3
 8 -6 -4 201.889 54.1687 1
 8 -6 -3 262.396 56.8838 1
 8 -6 -2 17.8664 32.6542 1
 8 -6 -1 356.73 65.3255 1
 -8 -6 0 350.44 64.7169 5
 -8 -6 0 262.307 58.6706 4
 -8 -6 -1 552.372 78.2966 5
 -8 -6 -1 443.208 72.2929 4
 -8 -6 -2 801.05 91.393 5
 -8 -6 -2 820.581 92.871 4
 -8 -6 -3 223.545 59.3429 5
 -8 -6 -3 162.821 56.2848 4
 -8 -5 9 491.456 79.1657 3
 8 -5 -9 653.868 85.4283 3
 -8 -5 8 164.819 47.6373 3
 8 -5 -8 127.016 54.5475 3
 -8 -5 7 28.0613 38.4263 3
 8 -5 -7 9.29308 35.712 3
 8 -5 -6 664.491 81.2462 1
 -8 -5 6 944.652 91.5828 3
 8 -5 -6 941.563 93.0238 3
 -8 -5 5 1237.29 101.37 3
 8 -5 -5 986.504 96.8984 1
 -8 -5 4 114.775 44.7049 3
 8 -5 -4 119.375 45.3712 1
 8 -5 -3 250.097 52.9138 1
 8 -5 -2 435.059 63.1077 1
 -8 -5 0 433.14 70.7029 5
 -8 -5 0 450.503 67.3369 4
 -8 -5 -1 9.50808 33.8329 5
 -8 -5 -1 47.5407 38.2422 4
 -8 -5 -2 57.8832 45.8144 5
 -8 -5 -2 86.9508 49.3269 4
 -8 -5 -3 711.171 85.967 5
 -8 -5 -3 733.516 87.0471 4
 -8 -5 -4 293.849 67.0423 5
 -8 -5 -4 305.885 67.993 4
 -8 -4 10 260.127 62.0405 3
 8 -4 -10 463.887 75.1519 3
 -8 -4 9 513.222 71.1387 3
 8 -4 -9 474.291 71.0861 3
 -8 -4 8 65.5834 41.6366 3
 8 -4 -8 84.7705 44.036 3
 -8 -4 7 125.401 46.3358 3
 8 -4 -7 17.8646 36.7396 3
 -8 -4 6 402.445 61.9821 3
 8 -4 -6 320.159 57.223 3
 -8 -4 5 89.7849 36.8837 3
 8 -4 -5 8.08213 33.9143 1
 8 -4 -4 1011.91 88.7511 1
 -8 -4 4 885.258 85.7663 3
 -8 -4 1 507.844 73.5516 5
 -8 -4 1 649.049 81.9917 4
 -8 -4 0 387.376 63.3024 5
 -8 -4 0 647.603 79.5437 4
 -8 -4 -1 191.348 51.58 5
 -8 -4 -1 173.311 51.6351 4
 -8 -4 -2 520.115 75.1974 5
 -8 -4 -2 484.648 75.4476 4
 -8 -4 -3 19.1068 34.9715 5
 -8 -4 -3 134.387 45.5723 4
 -8 -4 -4 -29.6082 42.1965 5
 -8 -4 -4 19.8763 41.6654 4
 -8 -4 -5 81.8059 49.3775 5
 -8 -4 -5 120.975 48.6834 7
 -8 -4 -5 123.728 48.2609 4
 -8 -4 -5 112.396 47.0551 6
 -8 -4 -5 106.807 49.6448 2
 -8 -3 10 987.912 99.3402 3
 8 -3 -10 855.219 92.4209 3
 -8 -3 9 704.438 80.4909 3
 8 -3 -9 557.735 76.5604 3
 -8 -3 8 720.902 80.5397 3
 8 -3 -8 749.598 85.1288 3
 -8 -3 7 146.33 43.6197 3
 8 -3 -7 190.341 52.5737 3
 -8 -3 6 230.473 53.1042 3
 8 -3 -6 244.236 53.4152 3
 -8 -3 5 491.086 63.3852 3
 8 -3 -5 350.292 56.4793 3
 -8 -3 4 1240.13 97.3584 3
 -8 -3 1 424.759 63.0999 5
 -8 -3 1 406.911 64.5577 4
 -8 -3 0 241.039 56.6764 5
 -8 -3 0 137.514 50.2675 4
 -8 -3 -1 1862.52 130.854 4
 -8 -3 -1 1702.43 126.095 5
 -8 -3 -2 240.648 54.5541 5
 -8 -3 -2 295.137 58.7029 4
 -8 -3 -3 -9.17936 39.248 5
 -8 -3 -3 55.8207 44.8139 7
 -8 -3 -3 -9.23581 40.2415 4
 -8 -3 -3 18.8555 41.0777 6
 -8 -3 -3 35.8218 41.1305 2
 -8 -3 -4 85.9732 46.0654 5
 -8 -3 -4 28.9316 34.3788 7
 -8 -3 -4 182.995 56.5732 4
 -8 -3 -4 48.7681 36.6417 6
 -8 -3 -4 83.4984 42.6657 2
 -8 -3 -5 447.447 71.1746 5
 -8 -3 -5 509.712 71.0282 7
 -8 -3 -5 481.992 74.2664 4
 -8 -3 -5 595.455 79.7281 6
 -8 -3 -5 557.426 75.2302 2
 -8 -2 11 69.8046 41.9436 3
 8 -2 -11 147.582 52.2848 8
 8 -2 -11 123.442 56.0005 3
 -8 -2 10 355.672 67.4793 3
 8 -2 -10 457.602 68.3604 8
 8 -2 -10 296.451 62.5431 3
 -8 -2 9 -9.20314 38.5871 3
 8 -2 -9 97.106 46.2282 8
 8 -2 -9 -9.4329 39.5502 3
 -8 -2 8 377.731 62.3341 3
 8 -2 -8 432.75 60.4444 8
 8 -2 -8 537.404 74.149 3
 -8 -2 7 108.533 37.2171 3
 8 -2 -7 118.46 39.0268 3
 -8 -2 6 118.329 40.4118 3
 8 -2 -6 119.274 42.3372 3
 -8 -2 5 491.368 63.8678 3
 8 -2 -5 519.914 64.6327 3
 -8 -2 4 118.786 40.7673 3
 -8 -2 1 403.336 65.3357 5
 -8 -2 1 370.056 61.2031 4
 -8 -2 0 3335.41 185.598 4
 -8 -2 0 3824 192.626 5
 -8 -2 -1 99.2407 42.8237 5
 -8 -2 -1 66.2906 38.7706 4
 -8 -2 -2 867.674 87.4286 5
 -8 -2 -2 1065.57 96.7167 7
 -8 -2 -2 769.175 84.5152 4
 -8 -2 -2 919.421 92.5969 6
 -8 -2 -2 931.607 92.2097 2
 -8 -2 -3 326.198 57.5437 5
 -8 -2 -3 299.961 59.283 7
 -8 -2 -3 266.298 55.9826 4
 -8 -2 -3 211.32 55.8038 6
 -8 -2 -3 393.696 66.6787 2
 -8 -2 -4 293.935 56.4065 5
 -8 -2 -4 360.558 63.9116 7
 -8 -2 -4 351.907 60.4522 4
 -8 -2 -4 239.036 59.1915 6
 -8 -2 -4 309.952 60.0232 2
 -8 -2 -5 -9.5826 39.3689 5
 -8 -2 -5 -19.7691 41.4462 7
 -8 -2 -5 -29.0575 44.4883 4
 -8 -2 -5 -29.83 40.8505 6
 -8 -2 -5 -28.5028 41.4004 2
 -8 -2 -6 119.708 47.5212 5
 -8 -2 -6 143.797 55.321 7
 -8 -2 -6 121.322 48.1563 4
 -8 -2 -6 124.013 52.8922 6
 -8 -2 -6 207.473 60.4685 2
 -8 -1 11 722.258 87.8038 3
 8 -1 -11 699.864 82.5208 8
 8 -1 -11 499.619 83.1842 3
 -8 -1 10 361.287 68.9275 3
 8 -1 -10 457.101 72.195 8
 8 -1 -10 430.999 70.4616 3
 -8 -1 9 1245.47 105.965 3
 8 -1 -9 993.069 95.0126 8
 8 -1 -9 1094.72 105.855 3
 8 -1 -8 1518.93 119.293 3
 8 -1 -8 1517.74 114.75 8
 -8 -1 8 1582.58 116.457 3
 -8 -1 7 229.096 48.7541 3
 8 -1 -7 259.184 48.7527 8
 8 -1 -7 318.827 57.7682 3
 -8 -1 6 316.278 54.9568 3
 8 -1 -6 254.437 48.8917 8
 8 -1 -6 339.061 52.9327 3
 -8 -1 5 123.067 39.9543 3
 8 -1 -5 102.677 36.5459 8
 8 -1 -5 103.131 36.1825 3
 -8 -1 4 635.549 67.7454 3
 -8 -1 1 2436.75 142.461 4
 -8 -1 1 2237.97 138.842 5
 -8 -1 0 215.474 47.4012 5
 -8 -1 0 184.661 43.7398 4
 -8 -1 -1 344.936 58.1254 5
 -8 -1 -1 429.988 61.9677 7
 -8 -1 -1 400.58 61.4928 4
 -8 -1 -1 279.201 56.7417 6
 -8 -1 -1 405.046 60.6507 2
 -8 -1 -2 209.794 50.4958 5
 -8 -1 -2 152.825 47.5615 7
 -8 -1 -2 235.414 51.7009 4
 -8 -1 -2 171.359 51.1151 6
 -8 -1 -2 138.56 44.1264 2
 -8 -1 -3 386.716 63.4792 5
 -8 -1 -3 391.081 65.7228 7
 -8 -1 -3 389.345 60.6594 4
 -8 -1 -3 367.25 65.3583 6
 -8 -1 -3 410.369 66.4757 2
 -8 -1 -4 44.0866 41.1838 5
 -8 -1 -4 65.1835 39.061 7
 -8 -1 -4 -8.90338 35.0397 4
 -8 -1 -4 103.048 41.5845 6
 -8 -1 -4 17.9136 43.1617 2
 -8 -1 -5 450.921 67.1578 5
 -8 -1 -5 486.272 73.5541 7
 -8 -1 -5 548.761 71.7626 4
 -8 -1 -5 440.82 68.874 6
 -8 -1 -5 422.656 70.7036 2
 -8 -1 -6 182.654 54.3113 5
 -8 -1 -6 152.255 54.7331 7
 -8 -1 -6 175.363 51.2673 4
 -8 -1 -6 133.07 50.3041 6
 -8 -1 -6 157.218 53.0003 2
 8 0 -11 1379.98 120.922 8
 8 0 -11 1495.81 125.057 3
 -8 0 10 796.4 93.0096 3
 8 0 -10 774.821 89.8424 8
 8 0 -10 1055.41 104.352 3
 -8 0 9 199.11 50.0399 3
 8 0 -9 462.611 68.6979 8
 -8 0 8 60.1646 44.4397 3
 8 0 -8 -8.00369 34.8901 5
 8 0 -8 26.3696 32.9804 8
 8 0 -8 112.325 41.4858 4
 -8 0 7 389.513 59.256 3
 8 0 -7 293.033 54.8805 5
 8 0 -7 218.489 48.1612 8
 8 0 -7 293.603 53.827 4
 -8 0 6 175.535 45.6323 3
 8 0 -6 187.171 44.3371 5
 8 0 -6 240.999 49.3905 8
 8 0 -6 150.18 42.1784 4
 -8 0 5 114.279 37.1694 3
 8 0 -5 73.7857 39.3666 5
 8 0 -5 177.228 44.0329 8
 8 0 -5 214.005 48.1228 4
 8 0 -4 7.3317 34.2277 5
 8 0 -4 7.44967 28.6247 8
 8 0 -4 -7.35842 36.5015 4
 8 0 -3 218.086 45.9762 5
 8 0 -3 172.758 42.2111 8
 8 0 -3 153.379 45.3699 4
 8 0 -2 -14.5046 27.8688 5
 8 0 -2 -7.39662 32.8195 7
 8 0 -2 -7.2795 30.5209 4
 8 0 -2 -21.9105 32.98 6
 -8 0 1 321.26 52.5636 5
 -8 0 1 227.812 47.7986 4
 8 0 -1 306.491 57.042 7
 8 0 -1 248.241 53.1092 6
 -8 0 0 7.23084 29.7022 5
 -8 0 0 7.46749 33.1319 7
 -8 0 0 7.22931 31.4972 4
 8 0 0 -23.8963 33.3943 7
 -8 0 0 15.1066 31.0268 6
 -8 0 0 71.6133 37.015 2
 8 0 0 -23.4779 37.6952 6
 -8 0 -1 7.37799 32.1449 5
 -8 0 -1 -78.2915 39.3874 7
 -8 0 -1 29.609 31.0332 4
 -8 0 -1 7.90851 32.4857 6
 -8 0 -1 60.1633 36.7682 2
 -8 0 -2 694.627 74.4336 5
 -8 0 -2 899.139 85.9286 7
 -8 0 -2 729.499 76.4793 4
 -8 0 -2 772.182 81.2481 6
 -8 0 -2 609.812 73.7383 2
 -8 0 -3 231.881 49.4276 5
 -8 0 -3 294.962 58.2604 7
 -8 0 -3 249.873 52.4952 4
 -8 0 -3 244.335 52.8307 6
 -8 0 -3 216.82 48.5664 2
 -8 0 -4 184.761 44.372 5
 -8 0 -4 237.074 53.2986 7
 -8 0 -4 220.391 48.5667 4
 -8 0 -4 128.633 47.2337 6
 -8 0 -4 167.16 50.918 2
 -8 0 -5 536.52 74.5093 5
 -8 0 -5 249.096 60.9637 7
 -8 0 -5 445.642 68.8982 4
 -8 0 -5 512.01 73.1487 6
 -8 0 -5 361.288 68.501 2
 -8 0 -6 516.156 71.0909 5
 -8 0 -6 572.013 80.5244 7
 -8 0 -6 737.219 83.7102 4
 -8 0 -6 648.617 85.6002 6
 -8 0 -6 700.26 88.9379 2
 -8 1 11 534.399 75.4318 1
 8 1 -11 645.066 86.0832 5
 8 1 -11 687.773 90.2327 8
 8 1 -11 821.077 92.9375 4
 8 1 -10 405.97 65.5219 5
 8 1 -10 443.438 71.7431 8
 8 1 -10 360.791 64.7664 4
 8 1 -9 1281.17 105.853 5
 8 1 -9 1159.45 106.327 8
 8 1 -9 1124.6 102.622 4
 8 1 -8 1641.09 119.384 5
 8 1 -8 1445.97 113.617 8
 8 1 -8 1374.75 110.924 4
 8 1 -7 229.119 48.4768 5
 8 1 -7 382.65 61.3126 8
 8 1 -7 320.027 55.433 4
 8 1 -6 359.555 57.2346 5
 8 1 -6 343.208 59.0245 8
 8 1 -6 384.397 57.7511 4
 8 1 -5 86.9237 38.2775 5
 8 1 -5 154.08 41.5587 8
 8 1 -5 150.204 44.1553 4
 8 1 -4 603.757 73.0505 5
 8 1 -4 784.685 76.0036 8
 8 1 -4 661.806 74.1752 7
 8 1 -4 638.939 74.0457 4
 8 1 -4 650.668 72.9952 6
 8 1 -3 -7.76099 35.0637 5
 8 1 -3 91.9763 39.11 8
 8 1 -3 23.063 39.2272 7
 8 1 -3 31.1908 37.0048 4
 8 1 -3 60.8724 37.7634 6
 8 1 -2 294.128 58.1328 5
 8 1 -2 314.238 54.7826 7
 8 1 -2 264.163 53.0113 4
 8 1 -2 349.294 57.5613 6
 8 1 -1 2525.75 149.764 7
 8 1 -1 2318.53 143.904 6
 -8 1 0 121.572 39.5375 7
 8 1 0 108.438 46.0499 7
 -8 1 0 151.583 44.6679 6
 -8 1 0 130.188 38.3343 2
 8 1 0 139.278 45.7552 6
 -8 1 -1 317.995 52.488 7
 8 1 1 389.058 64.2595 7
 -8 1 -1 495.022 61.6863 6
 -8 1 -1 434.806 59.4313 2
 8 1 1 237.853 54.5562 6
 -8 1 -2 224.059 52.693 7
 -8 1 -2 241.438 53.4196 6
 -8 1 -2 99.9165 41.6318 2
 -8 1 -3 355.521 62.2669 7
 -8 1 -3 451.499 67.3587 6
 -8 1 -3 351.435 63.2473 2
 -8 1 -4 -17.8949 35.1907 7
 -8 1 -4 36.0385 33.7864 6
 -8 1 -4 17.3018 36.27 2
 -8 1 -5 367.987 66.2628 7
 -8 1 -5 504.446 70.9746 6
 -8 1 -5 457.179 68.7241 2
 -8 1 -6 208.295 62.5323 7
 -8 1 -6 210.102 61.9437 6
 -8 1 -6 154.15 61.291 2
 -8 2 11 145.968 47.0114 1
 8 2 -11 150.135 48.3454 5
 8 2 -11 51.8496 46.1511 8
 8 2 -11 110.444 43.0788 4
 -8 2 10 415.054 68.0208 1
 8 2 -10 432.68 72.1506 5
 8 2 -10 460.978 70.7249 8
 8 2 -10 472.47 73.6891 4
 -8 2 9 -17.437 38.7062 1
 8 2 -9 55.3425 46.4233 5
 8 2 -9 106.058 44.3003 8
 8 2 -9 46.2115 38.7712 4
 -8 2 8 378.142 62.0727 1
 8 2 -8 507.162 71.7521 5
 8 2 -8 465.543 67.2469 8
 8 2 -8 419.427 65.4369 4
 8 2 -7 86.3286 43.5157 5
 8 2 -7 62.8943 37.7662 8
 8 2 -7 112.572 42.4241 4
 8 2 -6 168.736 44.999 5
 8 2 -6 139.903 46.0387 8
 8 2 -6 165.565 47.4543 7
 8 2 -6 126.839 42.2217 4
 8 2 -6 158.328 44.2927 6
 8 2 -5 644.028 72.8905 5
 8 2 -5 440.46 63.0867 8
 8 2 -5 500.393 66.7891 7
 8 2 -5 502.054 69.463 4
 8 2 -5 415.568 64.449 6
 8 2 -4 49.8388 36.9554 5
 8 2 -4 107.539 39.3314 8
 8 2 -4 201.024 48.6951 7
 8 2 -4 50.1392 39.1077 4
 8 2 -4 72.195 42.6265 6
 8 2 -3 592.843 74.1184 5
 8 2 -3 629.943 70.4024 7
 8 2 -3 488.114 70.1252 4
 8 2 -3 470.724 65.4263 6
 8 2 -2 738.92 80.6718 5
 8 2 -2 632.306 77.0697 7
 8 2 -2 651.085 76.7169 4
 8 2 -2 756.756 78.118 6
 8 2 -1 391.475 64.7289 7
 8 2 -1 293.813 59.0367 6
 8 2 0 3597.17 191.719 7
 8 2 0 3451.89 188 6
 8 2 1 108.088 45.4314 7
 8 2 1 97.32 41.4313 6
 8 2 2 1210.5 109.103 7
 8 2 2 878.166 93.9075 6
 -8 2 -3 247.939 50.6998 7
 -8 2 -3 249.459 52.4121 6
 -8 2 -3 319.278 58.2064 2
 -8 2 -4 245.385 57.4962 7
 -8 2 -4 212.283 52.5474 6
 -8 2 -4 322.705 60.964 2
 -8 2 -5 18.5707 42.6432 7
 -8 2 -5 -9.3612 39.2458 6
 -8 2 -5 9.00969 42.0612 2
 -8 2 -6 107.793 47.5109 7
 -8 2 -6 207.362 55.1865 6
 -8 2 -6 219.928 56.9516 2
 -8 3 11 1019.93 103.971 1
 -8 3 10 914.558 99.0885 1
 8 3 -10 1046.88 103.978 5
 8 3 -10 882.172 95.9051 8
 8 3 -10 1059.61 105.231 4
 -8 3 9 531.809 73.9371 1
 8 3 -9 499.531 74.2608 5
 8 3 -9 660.491 81.7216 8
 8 3 -9 587.224 80.7085 4
 -8 3 8 661.436 79.5945 1
 8 3 -8 864.007 88.3887 5
 8 3 -8 726.212 86.3922 8
 8 3 -8 627.387 76.9571 7
 8 3 -8 736.196 87.2533 4
 8 3 -8 760.546 84.4945 6
 -8 3 7 198.586 46.7643 1
 8 3 -7 108.573 44.4706 5
 8 3 -7 176.395 48.2028 8
 8 3 -7 154.028 50.4315 7
 8 3 -7 127.058 45.2503 4
 8 3 -7 103.086 46.3468 6
 -8 3 6 125.866 41.5073 1
 8 3 -6 151.382 49.7894 5
 8 3 -6 163.161 49.5199 8
 8 3 -6 228.617 47.3696 7
 8 3 -6 115.826 46.3338 4
 8 3 -6 186.935 46.9972 6
 8 3 -5 422.538 65.0567 5
 8 3 -5 371.483 63.2172 8
 8 3 -5 364.723 61.9572 7
 8 3 -5 343.463 60.3006 4
 8 3 -5 401.253 64.3681 6
 8 3 -4 1147.66 100.941 5
 8 3 -4 1096.31 99.9972 7
 8 3 -4 1110.02 98.1565 4
 8 3 -4 1045.39 100.036 6
 8 3 -3 790.242 80.6216 5
 8 3 -3 605.285 77.3 7
 8 3 -3 549.769 74.803 4
 8 3 -3 764.938 83.6634 6
 8 3 -2 2259.7 142.631 5
 8 3 -2 1977.57 136.781 7
 8 3 -2 2173.04 140.826 4
 8 3 -2 2048.27 137.093 6
 8 3 -1 349.722 61.5228 5
 8 3 -1 339.782 64.6357 7
 8 3 -1 429.971 66.7932 4
 8 3 -1 326.708 58.0063 6
 8 3 0 173.636 52.7548 7
 8 3 0 135.047 46.1729 6
 8 3 1 1826.17 134.1 7
 8 3 1 1620.18 126.678 6
 8 3 2 183.134 54.5224 7
 8 3 2 179.708 55.8152 6
 8 3 3 79.4314 49.959 7
 8 3 3 -9.75 43.2681 6
 -8 3 -6 378.015 68.2811 7
 -8 3 -6 468.765 72.5732 6
 -8 3 -6 388.715 69.1672 2
 -8 4 10 491.844 77.2589 1
 8 4 -10 360.159 66.3618 5
 8 4 -10 421.174 66.8092 8
 8 4 -10 389.831 68.5656 7
 8 4 -10 495.224 73.4776 4
 8 4 -10 264.161 67.3408 6
 -8 4 9 500.685 74.7456 1
 8 4 -9 537.171 77.5664 5
 8 4 -9 492.394 76.9526 8
 8 4 -9 485.982 76.1327 7
 8 4 -9 458.501 72.1207 4
 8 4 -9 458.573 73.7554 6
 -8 4 8 138.269 43.8887 1
 8 4 -8 106.45 50.817 5
 8 4 -8 97.9615 38.7156 8
 8 4 -8 121.276 47.733 7
 8 4 -8 96.9579 48.2476 4
 8 4 -8 177.65 54.4496 6
 -8 4 7 105.78 41.9069 1
 8 4 -7 47.1584 43.408 5
 8 4 -7 57.5443 35.1671 8
 8 4 -7 109.876 44.8559 7
 8 4 -7 122.989 48.3352 4
 8 4 -7 119.477 48.2076 6
 8 4 -6 222.237 54.5152 5
 8 4 -6 366.428 64.128 8
 8 4 -6 289.116 58.8581 7
 8 4 -6 269.15 59.9229 4
 8 4 -6 281.141 59.0758 6
 -8 4 6 261.675 55.5335 1
 8 4 -5 46.091 46.3942 5
 8 4 -5 36.9479 36.3513 8
 8 4 -5 17.9998 36.2144 7
 8 4 -5 36.8896 44.441 4
 8 4 -5 90.6614 43.6887 6
 8 4 -4 1118.03 104.991 5
 8 4 -4 1064.06 97.2036 7
 8 4 -4 993.414 100.134 4
 8 4 -4 907.167 91.2955 6
 8 4 -3 -63.7906 57.6896 5
 8 4 -3 45.6093 46.5258 7
 8 4 -3 -27.4705 54.2918 4
 8 4 -3 18.1945 43.8207 6
 8 4 -2 254.792 57.1719 5
 8 4 -2 222.072 52.6829 7
 8 4 -2 283.474 63.7521 4
 8 4 -2 275.302 56.6095 6
 8 4 -1 540.805 80.5559 5
 8 4 -1 590.137 77.2165 7
 8 4 -1 432.4 72.7013 4
 8 4 -1 574.693 77.6238 6
 8 4 0 638.276 80.3165 7
 8 4 0 695.861 80.5195 6
 8 4 1 194.577 55.1837 7
 8 4 1 258.684 61.0676 6
 8 4 2 626.781 82.1571 7
 8 4 2 547.309 76.9514 6
 8 4 3 163.242 56.1806 7
 8 4 3 50.0714 46.8521 6
 8 4 4 -20.9592 42.1411 7
 8 4 4 10.2895 39.537 6
 8 4 5 96.8672 51.8746 7
 8 4 5 31.6939 42.5224 6
 -8 5 9 584.348 82.7634 1
 8 5 -9 563.44 81.8602 5
 8 5 -9 540.586 74.9797 8
 8 5 -9 678.5 88.2159 7
 8 5 -9 780.118 93.0176 4
 8 5 -9 477.372 78.4728 6
 8 5 -8 89.7794 41.998 5
 8 5 -8 120.279 50.5726 8
 8 5 -8 178.36 53.3387 7
 8 5 -8 80.0399 44.5569 4
 8 5 -8 188.845 52.1868 6
 -8 5 8 106.875 44.7865 1
 8 5 -7 -9.77694 36.6675 5
 8 5 -7 9.88735 36.1429 8
 8 5 -7 9.7246 43.1512 7
 8 5 -7 58.8037 34.8707 4
 8 5 -7 78.1128 47.7424 6
 -8 5 7 9.35212 33.2756 1
 8 5 -6 933.365 94.2216 5
 8 5 -6 640.435 85.4148 8
 8 5 -6 889.959 91.3082 7
 8 5 -6 781.14 88.7022 4
 8 5 -6 864.451 90.5519 6
 8 5 -5 1218.86 109.267 5
 8 5 -5 1171.54 107.228 8
 8 5 -5 1006.93 100.357 7
 8 5 -5 969.79 102.268 4
 8 5 -5 1067.55 103.783 6
 8 5 -4 57.3226 48.8157 5
 8 5 -4 123.583 46.5713 7
 8 5 -4 19.1791 51.5692 4
 8 5 -4 191.33 52.0674 6
 8 5 -3 190.44 52.287 5
 8 5 -3 324.57 66.4326 7
 8 5 -3 210.59 52.5574 4
 8 5 -3 258.521 61.6033 6
 8 5 -2 427.414 73.5905 5
 8 5 -2 413.784 71.8625 7
 8 5 -2 295.895 66.6549 4
 8 5 -2 422.474 72.1592 6
 8 5 -1 458.6 70.5678 5
 8 5 -1 645.006 82.9176 7
 8 5 -1 546.744 74.3939 4
 8 5 -1 533.025 78.5609 6
 8 5 0 574.049 80.7304 7
 8 5 0 430.901 73.7712 6
 8 5 1 60.346 43.8613 7
 8 5 1 59.582 47.8693 6
 8 5 2 10.2452 42.9579 7
 8 5 2 40.3853 47.1397 6
 8 5 3 689.363 92.5546 7
 8 5 3 728.276 88.9381 6
 8 5 4 267.177 61.2214 7
 8 5 4 198.887 58.0249 6
 8 6 -8 102.424 51.6545 5
 8 6 -8 183.621 54.8877 8
 8 6 -8 93.9266 52.6278 7
 8 6 -8 184.908 57.8933 4
 8 6 -8 62.758 45.7145 6
 -8 6 8 91.7122 48.4688 1
 8 6 -7 783.711 89.6601 5
 8 6 -7 789.058 92.5782 8
 8 6 -7 872.142 97.6539 7
 8 6 -7 926.701 96.0055 4
 8 6 -7 874.908 99.8231 6
 8 6 -6 1023.41 103.821 5
 8 6 -6 779.498 95.5925 8
 8 6 -6 1139.66 107.602 7
 8 6 -6 936.149 101.668 4
 8 6 -6 932.179 98.6337 6
 8 6 -5 306.047 61.4769 5
 8 6 -5 308.05 58.4078 8
 8 6 -5 299.15 58.0068 7
 8 6 -5 286.36 61.489 4
 8 6 -5 210.319 53.851 6
 8 6 -4 216.854 57.6152 5
 8 6 -4 188.028 54.785 7
 8 6 -4 187.693 55.3123 4
 8 6 -4 208.644 53.7225 6
 8 6 -3 108.579 51.9833 5
 8 6 -3 317.656 64.7104 7
 8 6 -3 148.822 54.1975 4
 8 6 -3 169.807 52.5969 6
 8 6 -2 -9.85359 45.2612 5
 8 6 -2 69.9092 45.8738 7
 8 6 -2 9.90451 43.9529 4
 8 6 -2 60.0951 39.3999 6
 8 6 -1 355.787 66.1644 5
 8 6 -1 271.97 64.1483 7
 8 6 -1 377.051 65.3707 4
 8 6 -1 371.845 64.0054 6
 8 6 0 300.373 59.1121 5
 8 6 0 347.713 70.4572 7
 8 6 0 331.603 63.3691 4
 8 6 0 355.149 70.4359 6
 8 6 1 527.495 84.2515 7
 8 6 1 614.415 88.5952 6
 8 6 2 1090.14 111.498 7
 8 6 2 973.196 105.352 6
 8 6 3 127.752 52.2815 7
 8 6 3 178.487 50.0418 6
 8 7 -6 192.417 55.6168 5
 8 7 -6 255.647 62.3512 8
 8 7 -6 325.044 62.5248 4
 8 7 -5 312.551 67.2756 5
 8 7 -5 367.943 66.5441 8
 8 7 -5 270.397 61.8147 7
 8 7 -5 332.923 66.2452 4
 8 7 -5 261.209 59.5725 6
 8 7 -4 20.1747 50.0451 5
 8 7 -4 61.9459 44.9893 7
 8 7 -4 10.0928 52.8552 4
 8 7 -4 20.7127 39.8019 6
 8 7 -3 639.391 90.1176 5
 8 7 -3 689.522 89.2619 7
 8 7 -3 479.645 82.559 4
 8 7 -3 632.261 86.4432 6
 8 7 -2 699.923 93.3515 5
 8 7 -2 856.458 101.68 7
 8 7 -2 875.889 102.611 4
 8 7 -2 1079.99 109.095 6
 8 7 -1 488.248 79.5342 5
 8 7 -1 693.239 84.0362 7
 8 7 -1 643.712 81.1067 6
 8 7 0 246.415 62.7514 5
 8 7 0 250.475 62.5511 7
 8 7 0 371.028 72.3644 4
 8 7 0 301.658 62.9561 6
 8 7 1 84.1351 52.9162 7
 8 7 1 -10.4509 43.8232 6
 9 -6 -5 323.436 62.897 1
 9 -6 -4 9.64016 41.2166 1
 9 -5 -7 756.972 86.4203 1
 -9 -5 7 511.671 73.6257 3
 -9 -5 6 47.3188 43.4711 3
 9 -5 -6 9.43398 41.1115 1
 -9 -5 0 299.8 60.7322 5
 -9 -5 0 268.056 59.3244 4
 -9 -4 8 384.012 67.4862 3
 9 -4 -8 316.047 65.1041 3
 -9 -4 7 217.919 57.1551 3
 9 -4 -7 216.196 57.2548 3
 -9 -4 6 27.3545 35.8704 3
 -9 -4 0 59.9055 45.1746 5
 -9 -4 0 129.45 50.8687 4
 -9 -4 -1 151.852 46.6942 5
 -9 -4 -1 121.208 45.0239 4
 -9 -4 -2 194.449 54.1028 5
 -9 -4 -2 286.865 63.5626 4
 -9 -3 9 1068.35 100.644 3
 9 -3 -9 1063.98 102.324 3
 -9 -3 8 326.107 60.4982 3
 9 -3 -8 309.215 61.4733 3
 -9 -3 7 119.086 47.4761 3
 9 -3 -7 100.81 44.9421 3
 -9 -3 6 26.22 37.3762 3
 -9 -3 0 249.2 60.5599 5
 -9 -3 0 200.734 56.5542 4
 -9 -3 -1 106.562 50.2088 5
 -9 -3 -1 125.926 50.2044 4
 -9 -3 -2 1090.72 107.101 5
 -9 -3 -2 1417.83 117.301 4
 -9 -3 -3 573.368 83.5896 5
 -9 -3 -3 635.898 85.5524 4
 -9 -2 9 9.81193 42.7828 3
 9 -2 -9 129.929 52.3615 3
 -9 -2 8 572.258 77.0075 3
 9 -2 -8 618.624 75.9895 3
 -9 -2 7 44.7131 38.339 3
 9 -2 -7 162.399 49.1083 3
 -9 -2 6 568.619 71.6933 3
 -9 -2 1 99.1136 43.4694 5
 -9 -2 1 53.9463 44.6677 4
 -9 -2 0 356.944 64.6738 5
 -9 -2 0 328.587 61.718 4
 -9 -2 -1 1528.41 123.161 4
 -9 -2 -1 1528.6 121.944 5
 -9 -2 -2 537.217 75.6288 5
 -9 -2 -2 415.508 67.4546 4
 -9 -2 -3 270.633 56.1259 5
 -9 -2 -3 310.115 64.3728 7
 -9 -2 -3 213.633 55.1945 4
 -9 -2 -3 303.746 63.4594 6
 -9 -2 -3 182.713 53.4683 2
 -9 -2 -4 248.51 59.7308 5
 -9 -2 -4 380.036 69.3223 4
 9 -1 -10 190.408 51.4718 8
 -9 -1 9 29.0784 34.4877 3
 9 -1 -9 28.735 35.9234 8
 9 -1 -9 9.94443 33.36 3
 -9 -1 8 601.643 79.2484 3
 9 -1 -8 706.382 82.2714 8
 9 -1 -8 662.951 81.7348 3
 -9 -1 7 729.827 81.867 3
 9 -1 -7 753.849 85.4275 3
 -9 -1 6 249.456 55.1227 3
 9 -1 -6 287.755 56.0815 3
 -9 -1 1 179.379 50.5215 5
 -9 -1 1 213.083 52.8856 4
 -9 -1 0 536.933 73.5024 5
 -9 -1 0 726.219 81.2044 4
 -9 -1 -1 1053.31 98.5642 5
 -9 -1 -1 1027.95 96.1392 4
 -9 -1 -2 107.795 48.8685 5
 -9 -1 -2 37.6309 46.7254 7
 -9 -1 -2 90.0011 44.7061 4
 -9 -1 -2 28.565 36.6605 6
 -9 -1 -2 135.571 47.9857 2
 -9 -1 -3 9.23753 39.4947 5
 -9 -1 -3 117.37 47.1116 7
 -9 -1 -3 -46.401 39.6771 4
 -9 -1 -3 9.88781 41.4539 6
 -9 -1 -3 -9.40853 37.0024 2
 -9 -1 -4 601.951 80.6404 5
 -9 -1 -4 437.013 69.595 7
 -9 -1 -4 654.139 85.4547 4
 -9 -1 -4 677.108 81.4305 6
 -9 -1 -4 586.684 80.3624 2
 9 0 -10 92.1682 47.1922 8
 9 0 -10 155.611 50.1197 3
 -9 0 9 106.128 42.9034 3
 9 0 -9 49.3015 43.0567 8
 9 0 -9 119.345 45.7656 3
 9 0 -8 1716.48 129.633 3
 9 0 -8 1710.95 130.019 8
 -9 0 8 1793.18 130.141 3
 -9 0 7 287.805 54.3421 3
 9 0 -7 218.743 54.64 8
 -9 0 6 838.668 82.6001 3
 9 0 -6 807.496 86.6936 8
 9 0 -5 330.627 57.3983 8
 9 0 -1 268.535 56.3443 7
 9 0 -1 230.124 50.1356 6
 9 0 0 242.586 55.2976 7
 9 0 0 203.051 51.7694 6
 -9 0 -1 8.75606 40.8868 7
 9 0 1 65.2913 48.8485 7
 -9 0 -1 44.2915 40.6916 6
 -9 0 -1 58.8199 44.0086 2
 9 0 1 -9.16957 39.2137 6
 -9 0 -2 82.3408 39.1983 7
 -9 0 -2 35.1593 32.226 2
 -9 0 -3 67.0057 44.7763 7
 -9 0 -3 134.954 52.4568 6
 -9 0 -3 73.433 49.3621 2
 -9 0 -4 -19.986 42.7242 7
 -9 0 -4 40.1846 42.9515 6
 -9 0 -4 -19.1794 41.7811 2
 9 1 -10 213.971 52.6025 5
 9 1 -10 185.319 50.8126 4
 9 1 -9 94.0116 47.3072 5
 9 1 -9 30.2803 43.9878 8
 9 1 -9 -9.4145 40.2642 4
 9 1 -8 721.361 85.34 5
 9 1 -8 742.957 84.7627 8
 9 1 -8 851.727 91.8867 4
 9 1 -7 580.183 77.6423 5
 9 1 -7 699.331 83.0321 8
 9 1 -7 671.504 80.0064 4
 9 1 -6 368.738 60.8105 5
 9 1 -6 448.808 65.643 8
 9 1 -6 246.384 57.2598 4
 9 1 -5 113.734 44.7929 5
 9 1 -5 134.082 48.7308 8
 9 1 -5 122.534 51.5202 4
 9 1 -4 357.403 59.7503 5
 9 1 -4 408.475 64.2939 8
 9 1 -4 393.705 63.8706 4
 9 1 -3 182.566 47.3665 5
 9 1 -3 127.744 39.9071 8
 9 1 -3 147.088 48.788 7
 9 1 -3 8.7347 37.5036 4
 9 1 -3 145.866 49.9638 6
 9 1 -2 -26.1214 40.6587 5
 9 1 -2 44.2555 39.281 7
 9 1 -2 26.2465 41.5067 4
 9 1 -2 96.3208 48.1535 6
 9 1 -1 202.225 55.0792 5
 9 1 -1 227.72 58.5469 7
 9 1 -1 273.532 59.5618 4
 9 1 -1 152.672 51.5057 6
 9 1 0 497.705 74.0193 7
 9 1 0 534.429 74.7229 6
 9 1 1 1173.39 104.874 7
 9 1 1 1018.97 99.4219 6
 -9 1 -2 106.6 48.3704 7
 9 1 2 100.262 42.1475 7
 -9 1 -2 44.7381 39.8192 6
 -9 1 -2 153.462 50.6424 2
 9 1 2 108.379 46.8348 6
 -9 1 -3 9.34335 34.1485 7
 -9 1 -3 -9.38591 39.3493 6
 -9 1 -3 17.9051 37.5324 2
 -9 1 -4 683.797 86.4566 7
 -9 1 -4 599.399 78.7486 6
 -9 1 -4 526.06 77.9182 2
 9 2 -9 49.1821 40.5073 5
 9 2 -9 72.3736 45.1378 8
 9 2 -9 157.7 44.5972 4
 9 2 -8 662.314 82.977 5
 9 2 -8 654.113 84.6836 8
 9 2 -8 586.651 79.5294 4
 9 2 -7 65.6938 41.6725 5
 9 2 -7 19.5574 38.4944 8
 9 2 -7 84.7233 46.0553 4
 9 2 -6 501.897 74.1173 5
 9 2 -6 601.09 74.2857 8
 9 2 -6 446.373 72.4973 4
 9 2 -5 129.244 52.6252 5
 9 2 -5 149.231 48.9743 8
 9 2 -5 167.08 47.9231 7
 9 2 -5 18.4758 43.9678 4
 9 2 -5 150.493 51.5544 6
 9 2 -4 294.644 62.5275 5
 9 2 -4 246.359 55.4991 8
 9 2 -4 367.383 64.0536 7
 9 2 -4 351.175 67.3661 4
 9 2 -4 294.988 58.8699 6
 9 2 -3 651.96 78.6748 5
 9 2 -3 548.976 77.2731 7
 9 2 -3 488.988 71.4746 4
 9 2 -3 572.166 77.485 6
 9 2 -2 -27.579 44.9519 5
 9 2 -2 74.5835 42.1029 7
 9 2 -2 18.4747 42.4295 4
 9 2 -2 36.9378 40.9784 6
 9 2 -1 120.496 44.6919 5
 9 2 -1 57.2123 42.3554 7
 9 2 -1 46.522 43.4846 4
 9 2 -1 47.1017 34.4899 6
 9 2 0 371.854 68.5944 7
 9 2 0 337.555 64.1583 6
 9 2 1 1379.12 117.939 7
 9 2 1 1184.62 110.794 6
 9 2 2 549.194 80.2903 7
 9 2 2 335.635 66.3257 6
 9 2 3 234.647 62.805 7
 9 2 3 115.25 47.5784 6
 9 3 -9 1146.51 112.534 5
 9 3 -9 1385.91 119.202 4
 9 3 -8 330.38 65.9145 5
 9 3 -8 268.496 64.5394 8
 9 3 -8 431.035 70.1461 4
 9 3 -7 58.8631 43.7233 5
 9 3 -7 175.988 49.2928 7
 9 3 -7 88.5083 41.4358 4
 9 3 -7 120.888 46.3128 6
 9 3 -6 29.1896 34.6136 5
 9 3 -6 29.7789 36.2799 8
 9 3 -6 -9.25502 35.5623 7
 9 3 -6 -9.73524 39.1481 4
 9 3 -6 9.29164 33.9604 6
 9 3 -5 174.333 55.863 5
 9 3 -5 252.59 60.5856 8
 9 3 -5 121.286 49.0691 7
 9 3 -5 135.652 53.4733 4
 9 3 -5 84.5141 47.4655 6
 9 3 -4 -38.6456 45.8256 5
 9 3 -4 -19.1669 40.1779 8
 9 3 -4 -28.4105 43.4922 7
 9 3 -4 58.1826 48.7849 4
 9 3 -4 37.9073 44.2422 6
 9 3 -3 86.7989 43.0471 5
 9 3 -3 230.472 51.7708 7
 9 3 -3 116.285 49.6465 4
 9 3 -3 181.384 48.9158 6
 9 3 -2 183.389 57.3643 5
 9 3 -2 97.8302 48.6913 7
 9 3 -2 184.164 57.6054 4
 9 3 -2 77.623 43.9919 6
 9 3 -1 48.6082 43.9314 5
 9 3 -1 119.46 47.9819 7
 9 3 -1 29.2777 43.3352 4
 9 3 -1 39.368 41.2986 6
 9 3 0 284.751 62.1016 7
 9 3 0 260.794 61.2688 6
 9 3 1 166.623 48.8875 7
 9 3 1 153.892 55.3209 6
 9 3 2 1142.04 112.564 7
 9 3 2 1182.94 109.942 6
 9 3 3 579.855 86.7186 7
 9 3 3 622.694 90.2582 6
 9 4 -8 197.108 59.1773 5
 9 4 -8 317.499 65.3499 8
 9 4 -8 397.533 65.8251 7
 9 4 -8 311.821 67.6638 4
 9 4 -8 309.125 62.7859 6
 -9 4 8 344.272 63.3968 1
 9 4 -7 244.543 55.1636 5
 9 4 -7 218.771 59.0243 8
 9 4 -7 246.132 62.7271 7
 9 4 -7 183.973 53.3028 4
 9 4 -7 227.315 59.6043 6
 9 4 -6 -10.1309 43.3173 5
 9 4 -6 51.2753 44.6832 8
 9 4 -6 19.6155 40.2909 7
 9 4 -6 30.4099 43.3418 4
 9 4 -6 9.84087 39.576 6
 9 4 -5 -40.3929 49.3711 5
 9 4 -5 -10.0981 34.9102 8
 9 4 -5 49.1221 42.8033 7
 9 4 -5 -20.2057 47.919 4
 9 4 -5 69.237 46.1753 6
 9 4 -4 141.254 52.4595 5
 9 4 -4 217.732 50.1138 7
 9 4 -4 182.298 60.3149 4
 9 4 -4 169.37 51.809 6
 9 4 -3 413.256 72.7472 5
 9 4 -3 501.277 76.18 7
 9 4 -3 405.292 73.6049 4
 9 4 -3 562.016 79.8844 6
 9 4 -2 60.447 54.1597 5
 9 4 -2 152.6 54.0205 7
 9 4 -2 10.1238 51.7085 4
 9 4 -2 131.446 53.6915 6
 9 4 -1 425.766 76.5196 5
 9 4 -1 497.132 74.1538 7
 9 4 -1 437.628 76.3355 4
 9 4 -1 493.31 73.1005 6
 9 4 0 73.6805 50.845 7
 9 4 0 187.388 60.5978 6
 9 4 1 128.86 54.8276 7
 9 4 1 31.7617 54.7821 6
 9 4 2 230.107 65.4322 7
 9 4 2 258.984 66.3301 6
 9 5 -6 31.3047 38.1406 5
 9 5 -6 52.7959 42.4629 8
 9 5 -6 10.3197 35.6793 7
 9 5 -6 -20.9173 37.208 4
 9 5 -6 20.7163 37.8601 6
 9 5 -5 408.22 74.5425 5
 9 5 -5 398.091 74.604 8
 9 5 -5 359.889 71.7291 7
 9 5 -5 397.93 74.5747 4
 9 5 -5 454.281 77.5254 6
 9 5 -4 1015.36 105.337 5
 9 5 -4 1273.14 115.929 7
 9 5 -4 1144.46 110.288 4
 9 5 -4 1135.38 111.578 6
 9 5 -3 41.8397 48.8553 5
 9 5 -3 20.8858 46.358 7
 9 5 -3 73.6058 53.6513 4
 9 5 -3 62.8501 46.5005 6
 9 5 -2 52.3038 51.2399 5
 9 5 -2 200.577 55.3666 7
 9 5 -2 84.1266 53.7249 4
 9 5 -2 73.7394 47.6687 6
 9 5 -1 209.917 60.1873 5
 9 5 -1 257.689 65.3792 7
 9 5 -1 231.818 64.1793 4
 9 5 -1 276.847 65.456 6
 9 5 0 308.358 62.2485 5
 9 5 0 173.822 54.4396 7
 9 5 0 202.781 56.4152 4
 9 5 0 312.422 62.406 6
 9 5 1 206.942 55.1908 6
 -10 -2 0 9.98326 41.8756 5
 -10 -2 0 89.6567 50.135 4
 10 0 -8 70.1397 45.2986 8
 10 0 1 -102.358 38.3979 7
 10 0 1 30.1793 37.7382 6
 10 1 -7 252.823 60.499 8
 10 1 -6 29.5428 38.7399 8
 10 1 -5 568.455 75.8024 8
 10 1 -1 300.752 61.9594 7
 10 1 -1 307.15 60.6881 6
 10 1 0 732.688 91.0008 7
 10 1 0 763.081 91.4159 6
 10 1 1 -10.6226 46.2826 7
 10 1 1 31.2741 42.8227 6
 10 2 -7 241.379 62.539 5
 10 2 -7 292.564 70.2604 4
 10 2 -6 513.797 74.877 8
 10 2 -6 620.157 80.3688 4
 10 2 -5 360.855 70.2769 5
 10 2 -5 353.257 67.6445 8
 10 2 -5 381.064 70.8069 4
 10 2 -4 612.552 83.4833 5
 10 2 -4 693.667 86.9376 8
 10 2 -4 685.35 85.458 4
 10 2 -3 39.1005 40.9844 8
 10 2 -3 79.8839 43.5083 7
 10 2 -3 -30.3263 55.5829 4
 10 2 -3 39.7031 36.2808 6
 10 2 -2 362.549 70.8699 5
 10 2 -2 306.92 62.0924 7
 10 2 -2 303.693 69.178 4
 10 2 -2 304.364 62.753 6
 10 2 -1 40.5107 48.801 5
 10 2 -1 41.8082 42.9555 7
 10 2 -1 50.8444 48.9995 4
 10 2 -1 41.3477 39.7422 6
 10 2 0 10.2775 46.4077 5
 10 2 0 -10.7092 42.1187 7
 10 2 0 -10.3144 41.4777 4
 10 2 0 73.967 46.0389 6
 10 3 -5 52.3921 44.8131 5
 10 3 -5 20.9855 42.2078 8
 10 3 -5 20.196 44.8165 7
 10 3 -5 10.483 43.0751 4
 10 3 -5 101.637 52.5449 6
 10 3 -4 430.352 74.3387 5
 10 3 -4 362.913 70.8339 8
 10 3 -4 328.203 64.5892 7
 10 3 -4 284.449 66.3017 4
 10 3 -4 236.664 61.251 6
 10 3 -3 483.776 79.9064 5
 10 3 -3 573.706 82.5872 7
 10 3 -3 518.012 81.2797 4
 10 3 -3 405.85 70.4445 6
 10 3 -2 10.5293 54.4367 5
 10 3 -2 42.6584 48.17 7
 10 3 -2 84.6743 56.839 4
 10 3 -2 31.7624 45.2826 6
 10 3 -1 169.288 57.8556 5
 10 3 -1 217.267 63.4363 7
 10 3 -1 233.667 58.7543 4
 10 3 -1 193.539 56.6708 6

_iucr_refine_fcf_details
;
data_sucrose
_computing_structure_refinement   'olex2.refine 1.5-alpha (Bourhis et al., 2015)'
_shelx_refln_list_code            4
loop_
  _space_group_symop_id
  _space_group_symop_operation_xyz
  1  x,y,z
  2  -x,y+1/2,-z

_space_group_crystal_system       monoclinic
_space_group_IT_number            4
_space_group_name_H-M_alt         'P 1 21 1'
_space_group_name_Hall            ' P 2yb'
_symmetry_space_group_name_H-M    'P 1 21 1'
_symmetry_space_group_name_Hall   ' P 2yb'
_symmetry_Int_Tables_number       4
_cell_length_a                    7.7727(9)
_cell_length_b                    8.7216(11)
_cell_length_c                    10.8637(11)
_cell_angle_alpha                 90
_cell_angle_beta                  102.983(11)
_cell_angle_gamma                 90
_cell_volume                      717.63(15)
loop_
  _refln_index_h
  _refln_index_k
  _refln_index_l
  _refln_F_squared_calc
  _refln_F_squared_meas
  _refln_F_squared_sigma
  _refln_F_squared_weight
  _refln_observed_status
-9 -3 0 21.758 17.099 3.128 69.269 o
-9 -2 -1 100.253 115.679 6.558 13.564 o
-9 -2 0 26.167 25.935 3.379 57.430 o
-9 -1 -2 5.505 5.812 1.497 293.137 o
-9 -1 -1 79.578 78.744 5.209 20.854 o
-9 -1 0 41.758 48.166 7.163 15.229 o
-9 0 1 20.838 18.812 2.835 80.128 o
-9 0 5 27.170 25.022 4.344 38.788 o
-9 0 6 54.998 62.371 4.526 28.873 o
-9 0 7 18.253 19.538 2.916 78.624 o
-9 1 1 16.481 16.518 2.115 127.830 o
-9 1 2 4.707 2.485 1.590 289.171 o
-9 1 3 11.743 9.090 1.773 188.020 o
-9 1 4 31.493 29.239 2.732 71.590 o
-9 1 5 13.847 9.323 2.102 142.792 o
-9 1 6 20.194 27.675 3.666 52.681 o
-9 1 7 43.700 49.328 3.502 44.267 o
-9 2 1 5.436 5.007 1.536 286.527 o
-9 2 2 4.509 2.009 1.610 287.368 o
-9 2 3 44.486 42.973 2.878 56.199 o
-9 2 4 24.909 23.610 2.073 109.154 o
-9 2 5 11.490 9.229 1.649 207.225 o
-9 2 6 32.959 39.600 3.217 55.189 o
-9 2 7 5.634 4.143 1.824 220.277 o
-9 3 1 4.840 4.351 1.663 260.492 o
-9 3 2 12.002 9.973 2.098 146.938 o
-9 3 3 10.736 12.093 2.281 130.393 o
-9 3 4 0.457 0.051 1.497 392.728 o
-9 3 5 12.280 11.779 1.825 173.897 o
-9 3 6 2.068 0.775 1.211 527.695 o
-9 4 2 6.878 6.650 2.332 139.439 o
-9 4 3 30.024 35.925 2.855 66.688 o
-8 -5 -1 1.510 2.071 1.918 229.052 o
-8 -5 0 32.181 33.482 3.690 47.144 o
-8 -4 -3 6.096 5.234 4.362 45.181 o
-8 -4 -2 36.225 38.072 4.031 39.919 o
-8 -4 -1 16.788 13.833 2.762 89.245 o
-8 -4 0 45.147 39.445 9.847 8.595 o
-8 -3 -4 5.920 5.952 1.484 292.139 o
-8 -3 -3 1.337 1.318 1.394 420.997 o
-8 -3 -2 17.582 20.334 3.024 74.624 o
-8 -3 -1 136.279 134.947 6.872 11.202 o
-8 -3 0 12.323 14.771 3.917 51.782 o
-8 -2 -4 19.019 23.842 2.026 122.057 o
-8 -2 -3 23.507 23.059 1.986 116.970 o
-8 -2 -2 76.296 69.025 3.059 37.556 o
-8 -2 -1 5.185 6.202 2.175 162.094 o
-8 -2 0 258.306 271.492 18.488 2.088 o
-8 -1 -4 2.718 3.240 1.343 404.102 o
-8 -1 -3 34.363 29.459 2.174 88.202 o
-8 -1 -2 14.377 14.023 1.650 183.129 o
-8 -1 -1 31.139 28.497 2.020 99.011 o
-8 -1 0 14.943 15.137 2.433 109.211 o
-8 0 1 22.697 21.056 1.980 120.734 o
-8 0 2 0.476 -0.964 1.167 638.827 o
-8 0 3 11.761 13.965 1.941 158.557 o
-8 0 4 0.067 0.226 1.424 439.301 o
-8 0 5 6.921 11.273 2.219 145.563 o
-8 0 6 10.779 14.419 1.709 189.614 o
-8 0 7 15.902 22.878 2.064 126.409 o
-8 0 8 3.186 3.320 1.684 271.965 o
-8 0 9 26.495 26.079 9.971 8.663 o
-8 0 10 64.160 66.389 6.447 16.658 o
-8 1 1 187.886 183.332 7.853 7.890 o
-8 1 2 20.816 23.247 2.110 113.985 o
-8 1 3 4.544 2.942 1.270 408.701 o
-8 1 4 48.843 50.845 2.506 59.304 o
-8 1 5 7.375 9.940 1.797 201.782 o
-8 1 6 23.147 27.505 2.534 86.581 o
-8 1 7 19.319 23.599 2.885 77.440 o
-8 1 8 98.226 112.673 5.515 16.970 o
-8 1 9 69.819 90.132 4.583 24.777 o
-8 2 1 30.579 26.122 3.696 48.738 o
-8 2 2 54.182 52.783 2.955 48.497 o
-8 2 3 42.047 41.611 2.883 57.640 o
-8 2 4 7.127 7.429 1.775 212.837 o
-8 2 5 43.645 38.210 2.272 72.328 o
-8 2 6 11.251 11.567 1.520 223.223 o
-8 2 7 6.451 6.531 1.791 215.726 o
-8 2 8 31.357 33.520 2.511 77.179 o
-8 2 9 1.769 3.421 1.576 318.741 o
-8 3 1 30.910 27.434 2.364 85.676 o
-8 3 2 148.952 160.175 5.270 13.461 o
-8 3 3 43.830 51.871 4.371 32.865 o
-8 3 4 81.289 83.320 3.775 29.075 o
-8 3 5 30.998 28.855 2.129 94.265 o
-8 3 6 11.595 12.712 1.442 230.857 o
-8 3 7 11.329 11.229 1.446 236.677 o
-8 3 8 47.450 55.281 2.581 57.409 o
-8 3 9 39.123 43.219 2.929 57.715 o
-8 4 1 42.781 40.770 2.909 56.946 o
-8 4 2 20.370 19.559 2.163 114.533 o
-8 4 3 3.199 -0.204 1.879 234.069 o
-8 4 4 71.613 77.193 3.709 31.834 o
-8 4 5 3.467 3.355 1.379 374.572 o
-8 4 6 20.649 21.480 1.805 136.797 o
-8 4 7 4.563 6.922 1.325 353.805 o
-8 4 8 7.807 9.256 1.436 272.703 o
-8 5 1 43.432 41.361 2.883 57.010 o
-8 5 2 26.712 29.818 2.683 76.606 o
-8 5 3 21.048 18.634 2.169 113.814 o
-8 5 4 9.877 7.758 2.604 110.186 o
-8 5 5 79.234 82.460 3.534 31.298 o
-8 5 6 59.581 62.726 3.310 40.256 o
-8 6 1 24.182 26.415 2.456 89.422 o
-8 6 2 2.739 2.514 1.642 291.626 o
-8 6 3 15.559 14.823 3.082 75.758 o
-8 6 4 12.494 15.200 2.093 139.860 o
-7 -7 -1 3.191 2.768 1.678 275.772 o
-7 -7 0 28.158 29.567 3.353 56.400 o
-7 -6 -3 14.937 15.917 2.450 107.540 o
-7 -6 -2 19.612 19.065 2.389 102.600 o
-7 -6 -1 11.481 11.820 2.032 152.761 o
-7 -6 0 22.507 24.020 2.543 88.599 o
-7 -5 -4 23.104 25.042 3.305 61.006 o
-7 -5 -3 77.413 83.684 5.374 20.017 o
-7 -5 -2 6.413 5.851 1.862 204.896 o
-7 -5 -1 52.557 33.973 7.044 15.538 o
-7 -5 0 57.138 59.757 3.556 38.384 o
-7 -4 -5 30.618 33.080 3.240 57.183 o
-7 -4 -4 14.112 13.627 1.763 171.322 o
-7 -4 -3 6.902 3.597 2.125 167.327 o
-7 -4 -2 32.583 32.460 3.349 53.989 o
-7 -4 -1 20.755 18.079 2.666 87.792 o
-7 -4 0 21.816 22.893 3.870 48.555 o
-7 -3 -6 11.671 14.735 1.853 167.553 o
-7 -3 -5 44.293 43.416 2.302 69.078 o
-7 -3 -4 10.177 9.619 1.429 253.681 o
-7 -3 -3 41.836 39.606 2.346 71.236 o
-7 -3 -2 9.985 10.794 1.433 249.943 o
-7 -3 -1 30.177 25.649 2.985 66.032 o
-7 -3 0 28.264 26.398 3.691 49.557 o
-7 -2 -6 30.505 31.576 2.287 86.934 o
-7 -2 -5 6.004 4.812 1.462 303.336 o
-7 -2 -4 12.627 11.092 1.567 209.350 o
-7 -2 -3 5.353 4.118 1.326 361.863 o
-7 -2 -2 37.289 31.091 2.048 88.663 o
-7 -2 -1 179.691 178.722 4.707 12.572 o
-7 -2 0 119.246 116.644 5.677 15.114 o
-7 -1 -6 3.033 2.423 1.407 375.930 o
-7 -1 -5 13.414 12.615 2.593 102.932 o
-7 -1 -4 15.667 15.144 1.668 173.808 o
-7 -1 -3 101.805 108.568 3.631 24.945 o
-7 -1 -2 12.188 10.141 1.410 240.962 o
-7 -1 -1 34.861 29.843 2.144 88.550 o
-7 -1 0 49.607 50.023 3.746 39.138 o
-7 0 1 26.792 23.909 1.818 120.040 o
-7 0 2 419.358 418.747 9.052 3.312 o
-7 0 3 441.114 430.957 7.503 3.456 o
-7 0 4 0.001 -0.519 0.910 1084.550 o
-7 0 5 180.263 191.430 5.543 10.966 o
-7 0 6 0.248 1.010 1.012 818.937 o
-7 0 7 22.512 22.717 1.899 124.715 o
-7 0 8 71.152 73.944 3.284 36.083 o
-7 0 9 0.184 0.980 1.192 604.711 o
-7 0 10 43.362 39.040 2.172 74.912 o
-7 0 11 7.255 7.915 1.555 254.739 o
-7 1 1 93.638 99.190 3.596 26.999 o
-7 1 2 38.386 42.349 2.362 72.410 o
-7 1 3 131.740 127.968 3.651 20.191 o
-7 1 4 400.874 410.928 7.370 3.865 o
-7 1 5 41.500 44.645 1.980 79.332 o
-7 1 6 17.250 19.081 1.307 199.974 o
-7 1 7 2.918 1.769 1.153 529.828 o
-7 1 8 25.041 28.749 2.163 100.544 o
-7 1 9 16.414 16.729 1.858 149.467 o
-7 1 10 8.234 5.839 1.594 246.681 o
-7 1 11 3.382 3.459 1.472 337.414 o
-7 2 1 122.967 129.896 8.558 8.750 o
-7 2 2 207.197 196.377 5.524 9.970 o
-7 2 3 65.846 64.547 2.958 42.307 o
-7 2 4 278.394 278.654 5.653 6.973 o
-7 2 5 75.194 69.071 2.803 40.395 o
-7 2 6 47.149 36.729 1.887 80.232 o
-7 2 7 37.498 31.030 1.801 97.595 o
-7 2 8 11.909 11.832 1.373 243.845 o
-7 2 9 30.855 31.424 2.824 68.487 o
-7 2 10 46.824 53.725 3.164 47.797 o
-7 2 11 6.408 5.797 2.168 159.994 o
-7 3 1 68.706 66.380 4.607 26.178 o
-7 3 2 228.352 223.250 8.594 6.236 o
-7 3 3 42.222 40.610 2.696 61.969 o
-7 3 4 251.779 237.092 8.573 5.847 o
-7 3 5 51.958 46.312 2.151 65.955 o
-7 3 6 52.453 47.692 2.237 63.399 o
-7 3 7 34.415 30.510 1.945 96.427 o
-7 3 8 10.901 8.214 1.296 282.394 o
-7 3 9 23.161 22.538 1.778 131.663 o
-7 3 10 30.992 34.350 2.953 63.887 o
-7 4 1 0.217 0.975 2.114 198.106 o
-7 4 2 23.198 18.502 1.878 129.138 o
-7 4 3 68.152 63.118 3.263 38.407 o
-7 4 4 14.373 10.252 1.668 188.728 o
-7 4 5 30.623 31.455 1.897 103.133 o
-7 4 6 29.224 29.640 1.898 106.611 o
-7 4 7 4.405 5.551 1.227 407.216 o
-7 4 8 1.208 0.185 1.164 607.224 o
-7 4 9 7.010 7.104 1.369 308.129 o
-7 5 1 31.291 36.855 3.087 59.613 o
-7 5 2 52.037 41.569 3.575 41.887 o
-7 5 3 43.446 37.249 2.692 62.330 o
-7 5 4 45.945 44.959 2.798 56.599 o
-7 5 5 11.315 12.825 1.540 215.897 o
-7 5 6 61.479 62.820 2.699 47.412 o
-7 5 7 5.621 6.170 1.307 350.894 o
-7 5 8 21.924 20.621 1.767 137.582 o
-7 5 9 62.986 66.663 2.886 43.757 o
-7 6 1 107.494 112.517 4.476 20.239 o
-7 6 2 4.414 2.186 1.871 222.666 o
-7 6 3 29.431 27.762 2.481 82.495 o
-7 6 4 32.271 30.354 2.999 63.071 o
-7 6 5 18.802 20.253 1.917 134.045 o
-7 6 6 4.592 6.953 1.451 310.488 o
-7 6 7 9.877 11.059 1.537 229.944 o
-7 7 1 5.814 2.720 2.157 167.857 o
-7 7 2 27.435 32.289 2.964 66.292 o
-7 7 3 39.351 42.647 5.538 23.862 o
-7 7 4 23.214 25.647 2.473 90.094 o
-7 7 5 28.980 29.745 3.325 56.642 o
-6 -8 -1 10.394 12.239 3.885 53.623 o
-6 -8 0 1.600 4.238 3.456 73.005 o
-6 -7 -4 8.251 8.088 2.332 134.939 o
-6 -7 -3 1.444 0.814 1.651 309.532 o
-6 -7 -2 9.426 9.428 1.843 186.811 o
-6 -7 -1 12.197 11.553 3.030 81.698 o
-6 -7 0 51.182 50.232 4.173 33.806 o
-6 -6 -5 6.094 7.972 1.660 239.654 o
-6 -6 -4 82.362 76.072 4.270 26.088 o
-6 -6 -3 12.951 13.964 2.147 135.410 o
-6 -6 -2 116.312 116.832 5.714 15.158 o
-6 -6 -1 10.206 8.914 1.802 190.578 o
-6 -6 0 5.993 0.982 1.349 366.739 o
-6 -5 -6 0.079 0.132 1.661 324.053 o
-6 -5 -5 18.456 19.448 1.553 167.856 o
-6 -5 -4 8.208 6.816 1.533 256.800 o
-6 -5 -3 90.867 95.279 4.325 23.539 o
-6 -5 -2 51.938 41.392 2.993 51.051 o
-6 -5 -1 265.349 275.606 8.045 5.747 o
-6 -5 0 167.128 169.939 5.881 11.318 o
-6 -4 -7 39.950 40.071 2.271 74.618 o
-6 -4 -6 6.380 6.984 1.302 337.083 o
-6 -4 -5 1.400 0.674 1.038 721.808 o
-6 -4 -4 28.626 30.206 1.837 110.090 o
-6 -4 -3 58.351 56.407 3.460 39.643 o
-6 -4 -2 53.348 55.273 3.183 44.963 o
-6 -4 -1 29.331 27.103 2.387 86.546 o
-6 -4 0 85.412 76.643 4.765 22.749 o
-6 -3 -7 10.921 10.720 1.422 245.580 o
-6 -3 -6 0.690 1.293 1.075 700.378 o
-6 -3 -5 21.390 22.317 1.677 143.590 o
-6 -3 -4 8.643 7.881 1.287 309.131 o
-6 -3 -3 56.339 53.792 2.260 58.739 o
-6 -3 -2 29.587 24.890 1.828 113.475 o
-6 -3 -1 54.945 58.945 3.114 44.781 o
-6 -3 0 20.341 18.467 1.910 133.163 o
-6 -2 -8 14.487 16.240 1.893 152.217 o
-6 -2 -7 23.934 25.578 2.059 109.926 o
-6 -2 -6 129.229 129.841 3.729 20.088 o
-6 -2 -5 101.640 106.300 3.271 27.002 o
-6 -2 -4 146.440 134.924 4.263 16.790 o
-6 -2 -3 421.756 415.667 8.263 3.482 o
-6 -2 -2 121.565 113.100 3.481 22.772 o
-6 -2 -1 100.429 100.750 3.157 28.286 o
-6 -2 0 24.732 26.390 2.082 106.786 o
-6 -1 -8 24.370 21.698 2.037 113.644 o
-6 -1 -7 18.532 19.534 2.361 105.355 o
-6 -1 -6 39.300 35.549 2.150 80.810 o
-6 -1 -5 25.682 28.305 1.974 109.504 o
-6 -1 -4 89.357 81.738 3.303 31.140 o
-6 -1 -3 44.684 47.436 2.282 67.820 o
-6 -1 -2 102.961 94.498 4.571 21.104 o
-6 -1 -1 63.323 60.751 2.390 51.339 o
-6 -1 0 196.175 189.532 4.467 11.923 o
-6 0 1 0.225 0.700 0.853 1146.860 o
-6 0 2 190.458 192.431 4.335 12.311 o
-6 0 3 17.251 17.741 1.217 214.394 o
-6 0 4 31.300 34.687 1.551 115.066 o
-6 0 5 218.009 227.713 4.210 10.524 o
-6 0 6 170.151 170.155 4.219 14.168 o
-6 0 7 73.176 74.760 3.085 37.375 o
-6 0 8 17.318 15.831 1.469 188.445 o
-6 0 9 0.169 1.239 1.068 738.697 o
-6 0 10 9.289 8.262 1.322 291.431 o
-6 0 11 0.003 0.754 1.025 826.080 o
-6 0 12 17.784 19.189 1.936 136.168 o
-6 1 1 119.351 114.609 2.630 26.468 o
-6 1 2 91.779 90.806 2.806 33.169 o
-6 1 3 442.630 457.256 7.652 3.328 o
-6 1 4 309.777 304.956 5.244 6.351 o
-6 1 5 142.728 145.410 3.220 19.505 o
-6 1 6 162.898 165.666 3.536 16.143 o
-6 1 7 46.004 42.057 1.764 81.972 o
-6 1 8 7.875 6.399 1.282 328.340 o
-6 1 9 8.604 10.601 1.608 226.167 o
-6 1 10 0.818 -0.333 1.405 437.627 o
-6 1 11 25.349 28.774 2.456 86.984 o
-6 1 12 17.408 16.641 1.965 137.674 o
-6 2 1 145.205 149.774 6.299 11.747 o
-6 2 2 19.844 20.425 1.686 149.772 o
-6 2 3 261.170 258.758 7.701 6.136 o
-6 2 4 339.909 353.756 6.461 5.036 o
-6 2 5 751.593 761.398 11.970 1.339 o
-6 2 6 527.114 517.275 8.787 2.537 o
-6 2 7 142.511 142.912 3.906 17.753 o
-6 2 8 21.924 25.396 1.756 132.735 o
-6 2 9 10.809 10.188 1.615 213.667 o
-6 2 10 12.011 14.669 1.804 172.168 o
-6 2 11 17.371 20.087 2.755 86.028 o
-6 2 12 1.105 0.190 1.513 373.941 o
-6 3 1 17.786 13.228 2.166 124.655 o
-6 3 2 68.094 64.692 2.880 42.468 o
-6 3 3 117.589 118.346 3.522 22.771 o
-6 3 4 113.954 111.244 3.997 21.634 o
-6 3 5 29.232 26.325 1.818 113.357 o
-6 3 6 61.389 57.768 2.489 51.486 o
-6 3 7 11.971 10.783 1.295 262.072 o
-6 3 8 46.258 42.049 2.267 69.001 o
-6 3 9 31.544 29.366 1.828 106.447 o
-6 3 10 4.299 5.404 1.261 395.543 o
-6 3 11 22.021 22.747 2.545 89.647 o
-6 4 1 55.130 50.337 3.857 36.483 o
-6 4 2 259.145 257.066 6.793 6.793 o
-6 4 3 27.869 24.216 2.200 97.988 o
-6 4 4 9.006 6.950 1.231 326.196 o
-6 4 5 8.612 8.347 1.151 346.247 o
-6 4 6 70.624 70.939 2.609 43.645 o
-6 4 7 45.748 42.693 2.305 68.207 o
-6 4 8 36.986 35.201 1.955 89.933 o
-6 4 9 59.933 56.198 2.519 52.061 o
-6 4 10 29.077 33.633 2.104 94.755 o
-6 4 11 1.057 1.124 1.176 583.952 o
-6 5 1 94.140 102.781 3.929 24.807 o
-6 5 2 136.117 132.795 5.285 14.818 o
-6 5 3 11.328 6.093 1.658 214.728 o
-6 5 4 31.838 27.019 2.105 95.373 o
-6 5 5 184.796 189.764 4.549 12.320 o
-6 5 6 129.857 135.170 4.140 18.452 o
-6 5 7 0.609 0.766 1.045 757.264 o
-6 5 8 49.992 53.766 3.015 48.991 o
-6 5 9 25.579 28.407 1.977 109.422 o
-6 5 10 15.496 14.133 1.610 183.203 o
-6 6 1 2.908 3.876 1.406 367.324 o
-6 6 2 195.279 187.787 5.656 10.340 o
-6 6 3 41.773 42.818 2.606 63.684 o
-6 6 4 10.822 12.185 1.722 192.394 o
-6 6 5 0.484 0.576 1.191 602.167 o
-6 6 6 55.851 60.444 2.565 52.246 o
-6 6 7 26.244 25.889 1.847 117.552 o
-6 6 8 20.027 22.640 2.378 100.266 o
-6 6 9 52.596 60.289 3.051 46.250 o
-6 7 1 138.094 126.919 5.607 14.055 o
-6 7 2 59.633 55.737 3.048 44.651 o
-6 7 3 28.484 24.636 2.782 73.828 o
-6 7 4 15.341 12.724 1.973 146.988 o
-6 7 5 37.274 39.517 2.603 67.725 o
-6 7 6 0.446 2.236 1.362 448.297 o
-6 7 7 23.841 25.823 2.130 105.983 o
-6 8 1 24.244 25.294 4.704 34.446 o
-6 8 2 17.906 21.314 3.694 54.009 o
-6 8 3 6.839 7.401 2.116 162.888 o
-6 8 4 18.750 22.387 4.198 43.258 o
-6 8 5 72.253 96.306 5.902 17.603 o
-5 -9 -1 31.764 30.806 3.544 50.549 o
-5 -9 0 22.854 19.467 3.172 66.486 o
-5 -8 -4 42.868 47.598 4.278 34.424 o
-5 -8 -3 0.039 -1.636 2.114 200.773 o
-5 -8 -2 44.424 39.739 5.416 24.411 o
-5 -8 -1 47.722 52.287 4.186 34.112 o
-5 -8 0 10.694 14.568 2.624 103.239 o
-5 -7 -5 35.768 41.890 10.293 7.993 o
-5 -7 -4 41.823 38.174 3.842 41.273 o
-5 -7 -3 49.572 45.496 4.104 35.315 o
-5 -7 -2 34.980 33.291 4.943 29.734 o
-5 -7 -1 1.742 2.690 1.993 210.388 o
-5 -7 0 16.875 13.886 2.457 105.840 o
-5 -6 -7 6.147 4.509 1.990 187.871 o
-5 -6 -6 6.205 5.858 1.769 223.118 o
-5 -6 -5 5.601 4.403 1.426 321.305 o
-5 -6 -4 19.644 22.052 2.115 116.714 o
-5 -6 -3 6.402 3.512 1.322 353.033 o
-5 -6 -2 24.698 19.455 1.874 125.191 o
-5 -6 -1 41.433 36.427 2.806 61.068 o
-5 -6 0 124.737 121.653 4.051 19.816 o
-5 -5 -8 43.806 48.184 3.554 43.613 o
-5 -5 -7 6.872 9.589 1.597 242.496 o
-5 -5 -6 14.543 14.011 1.840 160.819 o
-5 -5 -5 24.086 23.059 1.530 146.217 o
-5 -5 -4 156.114 154.490 3.635 16.871 o
-5 -5 -3 5.136 4.070 1.311 371.513 o
-5 -5 -2 95.003 89.831 3.440 28.470 o
-5 -5 -1 256.317 247.210 8.921 5.511 o
-5 -5 0 37.066 38.215 2.178 80.799 o
-5 -4 -8 39.419 41.082 3.181 52.851 o
-5 -4 -7 11.406 12.690 1.455 229.858 o
-5 -4 -6 1.713 1.571 0.982 746.333 o
-5 -4 -5 97.235 94.443 2.772 31.788 o
-5 -4 -4 28.539 27.032 1.548 128.785 o
-5 -4 -3 11.222 8.220 1.034 344.990 o
-5 -4 -2 35.719 40.361 3.045 57.544 o
-5 -4 -1 1.379 0.897 1.121 627.857 o
-5 -4 0 121.556 115.811 3.584 22.201 o
-5 -3 -9 38.923 40.613 2.235 76.280 o
-5 -3 -8 35.503 34.618 2.002 90.333 o
-5 -3 -7 25.022 24.474 1.786 125.000 o
-5 -3 -6 9.842 12.937 1.370 255.600 o
-5 -3 -5 281.329 280.725 5.708 6.862 o
-5 -3 -4 191.191 190.475 3.961 12.870 o
-5 -3 -3 93.272 89.880 3.495 28.411 o
-5 -3 -2 1.020 1.518 0.789 1134.040 o
-5 -3 -1 211.026 208.963 5.249 9.964 o
-5 -3 0 380.486 384.704 8.026 3.969 o
-5 -2 -9 3.954 1.099 1.850 232.862 o
-5 -2 -8 14.067 14.607 1.509 201.486 o
-5 -2 -7 75.809 77.232 2.786 39.171 o
-5 -2 -6 207.645 192.247 4.475 11.351 o
-5 -2 -5 118.920 123.560 3.314 23.113 o
-5 -2 -4 6.514 6.784 1.069 424.340 o
-5 -2 -3 1.271 0.797 0.742 1265.520 o
-5 -2 -2 124.017 123.563 2.811 24.361 o
-5 -2 -1 170.243 176.875 3.748 14.832 o
-5 -2 0 687.988 694.762 12.872 1.460 o
-5 -1 -9 23.961 28.761 2.766 76.277 o
-5 -1 -8 8.638 7.793 1.487 260.039 o
-5 -1 -7 57.015 59.807 2.738 49.261 o
-5 -1 -6 38.371 37.163 1.876 89.854 o
-5 -1 -5 194.008 195.364 4.346 12.059 o
-5 -1 -4 491.685 491.009 8.292 2.835 o
-5 -1 -3 267.061 264.782 5.101 7.726 o
-5 -1 -2 5.063 4.504 0.956 551.854 o
-5 -1 -1 142.747 145.812 3.203 19.529 o
-5 -1 0 45.446 46.005 1.475 87.885 o
-5 0 1 3.216 3.759 0.561 1112.170 o
-5 0 2 22.329 21.907 1.109 188.831 o
-5 0 3 3.739 2.973 0.648 969.804 o
-5 0 4 463.618 442.579 6.646 3.416 o
-5 0 5 0.476 0.589 0.624 1938.290 o
-5 0 6 0.631 0.129 0.657 1802.200 o
-5 0 7 193.727 195.289 4.580 11.744 o
-5 0 8 194.260 195.244 4.714 11.534 o
-5 0 9 53.811 72.519 3.491 38.373 o
-5 0 10 17.282 14.608 1.572 179.343 o
-5 0 11 50.786 49.013 2.545 57.981 o
-5 0 12 3.219 3.851 1.280 420.515 o
-5 1 1 71.727 71.265 1.943 50.575 o
-5 1 2 16.327 15.556 1.020 254.902 o
-5 1 3 411.685 409.176 6.763 3.927 o
-5 1 4 126.458 125.922 3.303 22.084 o
-5 1 5 13.116 12.802 0.970 307.357 o
-5 1 6 83.903 80.299 2.288 40.697 o
-5 1 7 44.258 45.940 1.878 78.803 o
-5 1 8 447.437 454.751 7.869 3.264 o
-5 1 9 183.399 185.380 5.317 11.300 o
-5 1 10 95.148 101.006 3.846 25.241 o
-5 1 11 32.877 29.133 2.344 83.611 o
-5 1 12 21.398 26.838 3.508 56.089 o
-5 2 1 368.410 376.228 5.692 4.810 o
-5 2 2 232.255 235.011 4.440 9.655 o
-5 2 3 79.505 74.340 2.424 41.914 o
-5 2 4 209.697 202.753 4.161 11.431 o
-5 2 5 779.909 776.407 11.921 1.283 o
-5 2 6 438.380 438.852 7.534 3.441 o
-5 2 7 99.489 94.992 2.997 29.908 o
-5 2 8 21.888 18.750 1.443 167.089 o
-5 2 9 129.042 115.218 3.273 22.528 o
-5 2 10 10.329 7.652 1.231 306.791 o
-5 2 11 22.164 19.323 2.020 120.732 o
-5 2 12 61.354 60.551 3.298 40.213 o
-5 3 1 38.440 37.050 3.085 56.145 o
-5 3 2 5.628 4.621 1.099 453.150 o
-5 3 3 85.835 92.573 2.862 33.934 o
-5 3 4 6.859 6.754 1.076 414.702 o
-5 3 5 96.453 95.696 2.742 32.014 o
-5 3 6 148.953 148.001 3.601 17.806 o
-5 3 7 338.623 337.449 8.089 4.537 o
-5 3 8 117.269 125.760 3.437 22.700 o
-5 3 9 159.584 148.391 3.883 16.270 o
-5 3 10 93.156 92.368 3.080 30.875 o
-5 3 11 35.715 35.258 2.059 87.669 o
-5 3 12 59.865 61.074 3.856 34.363 o
-5 4 1 375.523 386.841 12.021 2.949 o
-5 4 2 23.177 20.980 1.733 136.620 o
-5 4 3 394.697 408.197 8.780 3.572 o
-5 4 4 190.858 194.750 4.666 11.759 o
-5 4 5 54.262 58.886 3.339 41.970 o
-5 4 6 189.948 187.410 4.278 12.542 o
-5 4 7 221.353 218.328 4.792 9.961 o
-5 4 8 28.776 29.692 1.764 113.963 o
-5 4 9 43.817 44.523 2.177 72.133 o
-5 4 10 19.926 17.842 1.611 160.092 o
-5 4 11 52.166 52.970 2.516 56.727 o
-5 5 1 37.469 34.388 3.029 58.520 o
-5 5 2 134.841 131.528 4.193 18.025 o
-5 5 3 93.982 93.859 3.531 27.750 o
-5 5 4 867.275 866.176 14.767 1.003 o
-5 5 5 23.787 21.629 2.300 100.101 o
-5 5 6 39.672 37.858 1.929 86.210 o
-5 5 7 7.265 7.917 1.264 331.811 o
-5 5 8 13.936 12.064 1.348 233.459 o
-5 5 9 15.384 16.163 1.753 163.768 o
-5 5 10 5.983 4.890 1.385 327.365 o
-5 5 11 21.665 24.159 2.073 114.017 o
-5 6 1 202.714 209.447 5.693 9.700 o
-5 6 2 46.209 37.075 2.251 71.298 o
-5 6 3 42.239 38.531 2.363 70.899 o
-5 6 4 154.540 161.649 4.905 13.909 o
-5 6 5 115.954 100.217 3.095 26.112 o
-5 6 6 189.901 193.955 4.583 11.939 o
-5 6 7 22.057 24.627 1.897 123.838 o
-5 6 8 38.128 33.409 2.457 73.421 o
-5 6 9 18.505 21.468 1.982 128.559 o
-5 6 10 0.149 -1.392 1.392 460.413 o
-5 7 1 14.840 12.133 2.325 119.181 o
-5 7 2 16.702 21.966 2.895 79.737 o
-5 7 3 111.001 96.770 5.706 16.031 o
-5 7 4 38.002 30.334 2.584 70.955 o
-5 7 5 16.093 15.975 2.736 90.120 o
-5 7 6 16.191 14.691 4.171 45.322 o
-5 7 7 9.850 7.559 1.971 171.316 o
-5 7 8 10.233 5.908 2.435 124.070 o
-5 7 9 1.914 1.164 1.932 226.131 o
-5 8 2 15.089 13.815 2.491 106.264 o
-5 8 3 24.385 25.726 4.054 43.970 o
-5 8 4 29.081 26.591 4.074 42.344 o
-5 8 5 14.965 16.391 2.916 82.538 o
-5 8 6 7.284 4.586 4.436 43.569 o
-5 8 7 17.887 17.515 3.875 50.519 o
-4 -9 -3 52.744 47.414 6.066 19.538 o
-4 -9 -2 90.355 100.003 8.418 9.908 o
-4 -9 -1 29.990 27.298 3.224 59.225 o
-4 -9 0 6.533 1.851 2.170 165.230 o
-4 -8 -5 64.004 57.804 4.673 26.817 o
-4 -8 -4 4.695 1.650 1.893 218.166 o
-4 -8 -3 38.241 30.784 3.250 54.088 o
-4 -8 -2 10.177 12.296 1.991 160.293 o
-4 -8 -1 41.713 30.253 3.136 55.108 o
-4 -8 0 15.531 16.568 3.485 61.539 o
-4 -7 -7 4.154 3.017 2.181 169.364 o
-4 -7 -6 30.132 32.289 3.469 52.410 o
-4 -7 -5 11.906 16.414 2.676 97.592 o
-4 -7 -4 63.587 60.880 4.321 29.444 o
-4 -7 -3 1.998 0.904 1.727 279.109 o
-4 -7 -2 186.953 188.077 6.168 9.913 o
-4 -7 -1 151.316 145.606 7.183 10.053 o
-4 -7 0 164.210 168.040 6.993 9.691 o
-4 -6 -8 15.347 22.400 4.355 41.349 o
-4 -6 -7 8.581 11.005 1.768 198.245 o
-4 -6 -6 24.926 22.339 2.010 113.690 o
-4 -6 -5 4.958 3.107 1.248 409.877 o
-4 -6 -4 12.096 11.524 1.591 207.190 o
-4 -6 -3 216.120 204.732 8.434 6.672 o
-4 -6 -2 69.321 65.109 2.522 46.183 o
-4 -6 -1 118.288 115.880 3.371 23.457 o
-4 -6 0 4.020 4.556 1.086 501.348 o
-4 -5 -9 97.758 94.128 4.054 24.229 o
-4 -5 -8 54.842 52.968 3.019 47.243 o
-4 -5 -7 2.389 2.114 1.343 420.960 o
-4 -5 -6 43.067 40.826 2.682 61.743 o
-4 -5 -5 29.192 31.259 2.527 79.448 o
-4 -5 -4 79.066 70.123 2.257 44.438 o
-4 -5 -3 2.659 2.049 1.252 467.442 o
-4 -5 -2 100.744 104.543 3.090 28.275 o
-4 -5 -1 0.870 1.883 0.912 893.284 o
-4 -5 0 48.836 46.806 3.651 40.995 o
-4 -4 -9 35.327 33.594 2.526 73.462 o
-4 -4 -8 23.413 25.721 2.198 103.095 o
-4 -4 -7 32.156 33.132 2.316 83.383 o
-4 -4 -6 245.833 243.033 4.723 8.855 o
-4 -4 -5 293.067 294.308 5.280 6.743 o
-4 -4 -4 194.270 202.070 3.980 12.393 o
-4 -4 -3 59.684 55.762 1.876 62.560 o
-4 -4 -2 70.853 77.353 2.265 46.123 o
-4 -4 -1 145.871 149.368 3.608 17.993 o
-4 -4 0 43.402 41.218 1.680 87.626 o
-4 -3 -10 131.305 146.105 5.937 13.142 o
-4 -3 -9 11.793 17.141 3.315 68.791 o
-4 -3 -8 22.630 28.644 2.199 102.093 o
-4 -3 -7 134.834 128.467 3.210 21.281 o
-4 -3 -6 96.744 91.456 2.562 33.569 o
-4 -3 -5 252.663 263.194 4.804 8.319 o
-4 -3 -4 519.985 536.638 8.114 2.609 o
-4 -3 -3 257.520 262.400 4.596 8.350 o
-4 -3 -2 287.111 284.248 4.795 7.235 o
-4 -3 -1 9.357 8.102 0.717 486.047 o
-4 -3 0 460.849 453.880 7.857 3.185 o
-4 -2 -10 15.158 12.932 1.670 179.669 o
-4 -2 -9 7.372 9.341 1.346 298.869 o
-4 -2 -8 9.185 11.692 1.304 280.341 o
-4 -2 -7 22.706 21.217 1.538 152.288 o
-4 -2 -6 94.537 96.291 3.406 28.216 o
-4 -2 -5 125.888 136.459 3.065 22.349 o
-4 -2 -4 380.161 379.446 6.071 4.550 o
-4 -2 -3 253.231 260.249 4.478 8.585 o
-4 -2 -2 119.988 128.155 2.694 25.051 o
-4 -2 -1 820.472 872.502 10.964 1.187 o
-4 -2 0 46.207 40.684 1.376 92.874 o
-4 -1 -10 9.918 5.207 1.606 235.023 o
-4 -1 -9 1.508 -0.237 1.150 612.568 o
-4 -1 -8 32.360 36.273 1.928 96.008 o
-4 -1 -7 64.888 64.569 2.361 50.159 o
-4 -1 -6 47.018 45.595 1.958 74.418 o
-4 -1 -5 47.251 49.072 1.919 73.656 o
-4 -1 -4 21.419 20.939 1.142 192.403 o
-4 -1 -3 64.327 67.904 1.837 56.550 o
-4 -1 -2 874.947 874.056 11.764 1.086 o
-4 -1 -1 211.204 208.121 3.212 12.330 o
-4 -1 0 206.140 211.974 3.046 12.675 o
-4 0 1 64.121 66.654 1.368 63.046 o
-4 0 2 94.799 107.512 2.096 34.887 o
-4 0 3 30.656 32.510 1.227 134.333 o
-4 0 4 1899.290 1886.490 37.559 0.208 o
-4 0 5 113.102 111.513 2.736 27.317 o
-4 0 6 121.203 130.740 2.705 24.637 o
-4 0 7 6.479 5.066 0.792 594.479 o
-4 0 8 217.418 231.138 6.576 8.076 o
-4 0 9 77.120 77.784 2.766 38.897 o
-4 0 10 11.887 12.482 1.388 239.019 o
-4 0 11 20.591 24.040 1.867 129.489 o
-4 0 12 38.810 41.829 2.676 64.127 o
-4 0 13 1.166 4.045 1.508 347.985 o
-4 1 1 142.256 147.440 2.312 21.822 o
-4 1 2 15.249 14.319 0.913 287.132 o
-4 1 3 1002.940 1051.810 13.725 0.817 o
-4 1 4 216.238 241.188 4.043 10.502 o
-4 1 5 273.896 272.504 4.521 7.843 o
-4 1 6 48.252 43.853 1.507 85.084 o
-4 1 7 127.372 135.518 2.957 22.588 o
-4 1 8 247.713 245.832 4.882 8.632 o
-4 1 9 92.816 89.917 2.719 33.630 o
-4 1 10 23.091 22.971 1.914 122.303 o
-4 1 11 11.836 15.993 1.886 161.247 o
-4 1 12 35.648 43.181 2.735 64.179 o
-4 1 13 9.150 9.570 2.402 125.466 o
-4 2 1 24.862 30.145 1.004 168.590 o
-4 2 2 207.232 223.833 6.239 8.752 o
-4 2 3 429.066 447.920 7.901 3.400 o
-4 2 4 93.656 101.700 2.515 33.382 o
-4 2 5 57.550 48.840 1.740 68.980 o
-4 2 6 37.624 38.723 1.613 98.886 o
-4 2 7 2.789 1.692 0.812 890.488 o
-4 2 8 163.355 165.684 3.825 15.517 o
-4 2 9 107.847 104.522 3.024 27.413 o
-4 2 10 56.705 53.690 2.261 58.546 o
-4 2 11 165.830 170.690 4.784 13.320 o
-4 2 12 18.845 18.732 2.023 127.686 o
-4 2 13 85.418 100.058 4.440 23.271 o
-4 3 1 27.881 27.543 2.522 82.485 o
-4 3 2 251.507 259.784 5.231 8.073 o
-4 3 3 345.577 345.880 6.552 4.982 o
-4 3 4 63.047 54.710 2.600 49.817 o
-4 3 5 362.723 361.868 6.316 4.768 o
-4 3 6 341.674 353.675 6.316 5.068 o
-4 3 7 203.724 213.985 4.492 11.043 o
-4 3 8 24.698 26.961 2.386 91.634 o
-4 3 9 15.752 15.252 1.337 214.418 o
-4 3 10 140.547 143.959 3.845 18.043 o
-4 3 11 23.601 20.072 1.670 141.264 o
-4 3 12 11.912 13.185 1.627 198.724 o
-4 4 1 274.709 275.749 8.924 5.144 o
-4 4 2 110.400 116.477 3.521 23.796 o
-4 4 3 6.431 8.139 1.342 316.756 o
-4 4 4 196.942 197.130 4.508 11.663 o
-4 4 5 274.158 268.330 5.160 7.482 o
-4 4 6 29.701 27.478 1.529 126.733 o
-4 4 7 13.777 12.399 1.329 236.578 o
-4 4 8 8.963 9.262 1.143 337.728 o
-4 4 9 10.301 10.027 1.229 295.067 o
-4 4 10 12.500 12.657 1.470 220.881 o
-4 4 11 4.850 6.463 1.417 321.162 o
-4 4 12 30.378 33.132 2.283 86.374 o
-4 5 1 33.970 31.662 1.865 99.507 o
-4 5 2 209.041 200.900 5.525 9.836 o
-4 5 3 453.368 460.484 9.515 2.911 o
-4 5 4 551.024 548.037 9.876 2.252 o
-4 5 5 243.770 252.876 6.383 7.434 o
-4 5 6 69.698 60.857 3.531 35.540 o
-4 5 7 281.961 271.226 5.509 7.064 o
-4 5 8 39.343 34.435 2.268 77.624 o
-4 5 9 4.689 5.461 1.325 362.160 o
-4 5 10 30.437 30.298 2.077 96.271 o
-4 5 11 46.993 48.559 2.712 56.868 o
-4 6 1 223.145 219.580 6.822 7.845 o
-4 6 2 286.796 288.568 6.751 6.093 o
-4 6 3 232.977 231.729 5.835 8.389 o
-4 6 4 78.627 74.068 2.988 36.953 o
-4 6 5 298.796 303.156 5.863 6.254 o
-4 6 6 131.512 128.383 3.783 19.759 o
-4 6 7 16.743 15.496 1.527 184.882 o
-4 6 8 39.053 37.889 2.258 76.669 o
-4 6 9 117.737 107.741 3.790 22.275 o
-4 6 10 5.284 6.215 1.451 306.989 o
-4 7 1 19.029 14.420 2.240 116.099 o
-4 7 2 206.271 222.662 12.454 4.114 o
-4 7 3 30.910 25.422 2.750 72.832 o
-4 7 4 10.043 9.181 2.189 143.604 o
-4 7 5 43.354 37.286 3.406 47.888 o
-4 7 6 100.330 94.733 4.435 21.984 o
-4 7 7 22.970 20.113 2.293 102.574 o
-4 7 8 32.101 35.678 2.921 63.717 o
-4 7 9 84.635 88.558 4.647 22.858 o
-4 8 3 11.331 12.931 2.399 118.965 o
-4 8 4 166.577 162.268 7.216 9.384 o
-4 8 5 24.552 29.499 3.142 63.650 o
-4 8 6 7.257 2.505 1.961 191.970 o
-4 8 7 5.506 5.041 2.197 160.049 o
-4 8 8 5.705 6.736 1.936 193.694 o
-4 9 6 29.380 32.306 3.439 53.355 o
-3 -10 -2 15.447 15.784 5.593 26.668 o
-3 -10 -1 6.398 8.852 2.623 113.055 o
-3 -10 0 6.125 4.050 3.293 77.189 o
-3 -9 -5 2.998 6.373 3.417 73.175 o
-3 -9 -4 2.500 2.051 2.980 97.461 o
-3 -9 -3 45.020 59.191 9.753 8.635 o
-3 -9 -2 2.464 0.059 1.912 230.704 o
-3 -9 -1 6.615 4.581 2.214 155.579 o
-3 -9 0 39.457 46.059 3.890 40.191 o
-3 -8 -7 30.529 35.630 3.802 45.333 o
-3 -8 -6 56.968 61.752 5.353 22.723 o
-3 -8 -5 49.440 49.215 4.041 35.688 o
-3 -8 -4 22.394 18.136 2.638 87.429 o
-3 -8 -3 5.911 3.813 1.554 282.669 o
-3 -8 -2 158.371 164.967 8.511 7.856 o
-3 -8 -1 82.193 67.337 4.569 24.752 o
-3 -8 0 15.028 15.205 2.007 141.503 o
-3 -7 -8 16.665 16.160 2.948 79.868 o
-3 -7 -7 5.451 3.011 1.899 209.647 o
-3 -7 -6 71.429 73.624 6.758 15.022 o
-3 -7 -5 29.960 31.635 3.339 55.496 o
-3 -7 -4 189.052 192.134 11.219 5.002 o
-3 -7 -3 31.015 30.667 3.377 54.384 o
-3 -7 -2 61.901 56.560 3.088 43.234 o
-3 -7 -1 36.942 36.702 2.900 61.227 o
-3 -7 0 24.731 23.440 2.074 109.514 o
-3 -6 -9 17.736 22.897 3.189 67.941 o
-3 -6 -8 2.149 3.269 2.080 191.552 o
-3 -6 -7 6.935 6.863 2.102 165.152 o
-3 -6 -6 17.643 11.796 6.394 20.746 o
-3 -6 -5 39.911 34.899 3.208 53.402 o
-3 -6 -4 38.591 39.289 3.249 52.213 o
-3 -6 -3 435.970 417.662 9.249 3.174 o
-3 -6 -2 78.931 71.423 2.474 42.120 o
-3 -6 -1 34.634 30.526 1.785 102.692 o
-3 -6 0 167.481 167.152 3.957 14.928 o
-3 -5 -10 32.287 38.532 2.746 67.460 o
-3 -5 -9 76.846 82.319 3.750 30.096 o
-3 -5 -8 25.427 25.959 2.169 101.628 o
-3 -5 -7 154.480 161.592 4.972 13.772 o
-3 -5 -6 134.990 134.139 4.316 17.538 o
-3 -5 -5 206.096 208.319 5.488 9.855 o
-3 -5 -4 18.705 19.137 1.650 158.347 o
-3 -5 -3 115.086 123.841 3.289 23.692 o
-3 -5 -2 90.468 81.316 2.501 36.882 o
-3 -5 -1 144.058 145.267 3.157 19.548 o
-3 -5 0 191.669 192.158 4.176 12.491 o
-3 -4 -10 5.746 10.919 1.906 189.559 o
-3 -4 -9 122.526 128.447 4.533 18.063 o
-3 -4 -8 28.426 25.587 2.056 103.230 o
-3 -4 -7 245.453 255.003 6.515 7.276 o
-3 -4 -6 256.330 246.077 4.574 8.626 o
-3 -4 -5 212.426 212.249 4.804 10.372 o
-3 -4 -4 8.224 7.511 0.903 448.833 o
-3 -4 -3 510.171 523.815 7.178 2.806 o
-3 -4 -2 202.604 218.742 4.542 10.932 o
-3 -4 -1 43.175 42.432 1.472 93.087 o
-3 -4 0 278.465 274.591 5.218 7.281 o
-3 -3 -11 30.764 32.802 2.921 65.335 o
-3 -3 -10 0.067 -0.445 1.224 597.327 o
-3 -3 -9 56.179 54.412 3.430 40.881 o
-3 -3 -8 8.913 6.851 1.063 381.737 o
-3 -3 -7 2.647 0.850 0.875 847.142 o
-3 -3 -6 180.889 173.875 3.569 14.560 o
-3 -3 -5 478.591 489.302 7.437 3.041 o
-3 -3 -4 240.030 242.412 4.233 9.455 o
-3 -3 -3 85.577 88.072 1.922 41.738 o
-3 -3 -2 811.462 811.924 10.206 1.274 o
-3 -3 -1 395.697 399.601 5.405 4.447 o
-3 -3 0 800.981 803.729 10.606 1.282 o
-3 -2 -11 38.747 49.817 4.124 36.838 o
-3 -2 -10 6.287 4.530 1.657 250.653 o
-3 -2 -9 15.707 13.435 1.382 213.521 o
-3 -2 -8 142.583 143.236 3.342 19.290 o
-3 -2 -7 31.825 32.991 1.536 116.373 o
-3 -2 -6 257.257 259.525 4.632 8.371 o
-3 -2 -5 137.191 140.052 2.931 21.205 o
-3 -2 -4 189.282 182.489 3.384 14.058 o
-3 -2 -3 74.404 84.246 1.995 46.045 o
-3 -2 -2 48.122 43.852 0.956 97.818 o
-3 -2 -1 832.435 811.280 7.246 1.336 o
-3 -2 0 72.219 75.130 1.246 56.353 o
-3 -1 -11 10.407 11.105 1.567 221.386 o
-3 -1 -10 24.370 23.976 2.328 96.484 o
-3 -1 -9 47.062 48.442 2.139 69.000 o
-3 -1 -8 97.927 95.368 2.883 30.863 o
-3 -1 -7 35.842 37.989 1.962 89.400 o
-3 -1 -6 110.990 112.115 3.552 23.866 o
-3 -1 -5 12.955 12.035 0.907 327.359 o
-3 -1 -4 396.577 392.021 5.949 4.345 o
-3 -1 -3 25.130 32.338 1.150 154.656 o
-3 -1 -2 155.466 157.150 2.190 19.966 o
-3 -1 -1 191.836 199.008 2.101 14.992 o
-3 -1 0 16.756 17.306 0.463 315.986 o
-3 0 1 910.094 895.027 8.111 1.125 o
-3 0 2 1220.250 1155.920 10.381 0.671 o
-3 0 3 1614.710 1622.800 18.772 0.358 o
-3 0 4 466.211 457.873 6.703 3.336 o
-3 0 5 1.384 1.281 0.553 1796.180 o
-3 0 6 550.293 529.394 8.478 2.448 o
-3 0 7 22.564 28.092 1.227 165.558 o
-3 0 8 2.548 1.674 0.731 1045.340 o
-3 0 9 2.623 1.458 0.950 733.638 o
-3 0 10 8.256 6.816 1.352 301.281 o
-3 0 11 288.042 299.263 9.853 4.459 o
-3 0 12 86.655 90.493 3.771 27.671 o
-3 0 13 10.370 9.850 1.841 182.548 o
-3 1 1 1611.190 1646.390 15.233 0.374 o
-3 1 2 2102.170 2075.110 20.621 0.227 o
-3 1 3 1917.650 1956.140 17.976 0.269 o
-3 1 4 38.218 35.328 0.971 123.401 o
-3 1 5 1790.860 1905.900 24.200 0.271 o
-3 1 6 210.462 228.613 3.945 11.091 o
-3 1 7 32.754 32.857 1.452 118.551 o
-3 1 8 200.036 208.457 4.271 11.591 o
-3 1 9 81.879 78.369 2.443 40.313 o
-3 1 10 51.623 53.655 2.150 63.709 o
-3 1 11 7.926 9.149 1.556 245.317 o
-3 1 12 5.160 6.807 1.641 254.267 o
-3 1 13 2.089 1.245 1.407 401.058 o
-3 2 1 462.507 452.826 5.118 3.635 o
-3 2 2 262.109 249.045 4.170 8.711 o
-3 2 3 85.191 84.377 1.533 45.420 o
-3 2 4 625.538 665.438 8.470 1.938 o
-3 2 5 813.816 840.788 12.348 1.169 o
-3 2 6 199.829 191.470 3.840 12.570 o
-3 2 7 53.842 52.670 1.868 67.956 o
-3 2 8 221.701 216.718 4.460 10.330 o
-3 2 9 8.782 8.956 1.429 267.286 o
-3 2 10 178.360 174.023 4.133 13.739 o
-3 2 11 114.067 112.591 3.340 24.367 o
-3 2 12 31.380 31.663 1.936 100.153 o
-3 2 13 24.870 28.600 4.167 41.600 o
-3 3 1 822.974 848.429 13.041 1.126 o
-3 3 2 212.800 234.716 4.111 10.694 o
-3 3 3 207.922 218.264 3.955 11.412 o
-3 3 4 246.021 244.364 4.449 9.054 o
-3 3 5 58.771 57.207 1.842 63.246 o
-3 3 6 165.583 169.513 3.618 15.644 o
-3 3 7 197.913 201.857 4.203 11.925 o
-3 3 8 2.926 2.004 0.842 826.461 o
-3 3 9 13.012 14.025 1.251 249.434 o
-3 3 10 57.825 60.644 2.401 53.812 o
-3 3 11 60.729 65.862 2.847 45.170 o
-3 3 12 3.112 5.047 1.374 369.179 o
-3 4 1 116.875 127.387 4.893 17.346 o
-3 4 2 31.765 29.233 1.610 116.561 o
-3 4 3 190.988 179.671 5.565 10.758 o
-3 4 4 27.259 27.169 1.447 137.667 o
-3 4 5 563.983 574.055 9.960 2.153 o
-3 4 6 116.266 118.825 2.980 25.167 o
-3 4 7 147.739 147.844 3.501 18.173 o
-3 4 8 544.942 558.768 9.288 2.320 o
-3 4 9 38.050 36.945 2.053 84.448 o
-3 4 10 61.490 63.194 3.177 41.238 o
-3 4 11 26.689 27.539 2.023 105.955 o
-3 4 12 40.764 38.915 2.419 70.356 o
-3 5 1 167.936 165.863 4.225 14.414 o
-3 5 2 168.553 164.518 4.222 14.423 o
-3 5 3 106.885 103.159 2.862 28.532 o
-3 5 4 169.791 169.262 3.988 14.654 o
-3 5 5 179.407 178.483 4.247 13.363 o
-3 5 6 60.551 57.629 2.327 54.344 o
-3 5 7 109.044 106.090 5.305 17.220 o
-3 5 8 41.748 44.736 2.238 72.126 o
-3 5 9 93.373 90.403 4.966 20.358 o
-3 5 10 106.206 98.273 3.529 25.572 o
-3 5 11 23.772 25.773 2.001 113.267 o
-3 6 1 138.171 126.135 3.649 19.649 o
-3 6 2 195.595 200.885 4.977 11.005 o
-3 6 3 1.811 0.824 0.937 823.085 o
-3 6 4 216.699 216.430 4.853 10.091 o
-3 6 5 47.099 49.307 2.162 68.125 o
-3 6 6 288.921 302.181 7.439 5.594 o
-3 6 7 9.559 11.255 1.312 277.063 o
-3 6 8 77.481 79.241 3.030 36.209 o
-3 6 9 78.704 73.531 3.029 36.628 o
-3 6 10 170.275 172.999 6.400 10.328 o
-3 6 11 14.408 14.768 2.917 83.681 o
-3 7 1 133.330 124.137 5.690 14.153 o
-3 7 2 27.422 24.193 2.422 88.637 o
-3 7 3 223.115 201.012 7.476 7.426 o
-3 7 4 76.016 77.478 4.395 26.003 o
-3 7 5 13.301 9.474 2.081 146.003 o
-3 7 6 121.173 131.120 5.099 16.278 o
-3 7 7 19.334 22.297 2.414 99.452 o
-3 7 8 18.523 16.063 2.190 118.951 o
-3 7 9 73.713 83.052 13.309 4.668 o
-3 7 10 27.685 24.042 5.664 24.700 o
-3 8 4 47.752 40.956 5.487 23.567 o
-3 8 5 5.738 2.769 2.120 173.199 o
-3 8 6 5.200 5.368 2.221 157.487 o
-3 8 7 33.967 33.868 3.551 49.087 o
-3 8 8 14.943 12.062 4.671 37.490 o
-3 9 7 15.673 16.946 2.822 85.954 o
-2 -10 -3 7.636 7.792 3.484 67.650 o
-2 -10 -2 0.595 -0.975 2.096 201.861 o
-2 -10 -1 4.634 4.545 2.183 165.148 o
-2 -10 0 15.575 16.444 2.797 87.443 o
-2 -9 -6 20.834 18.657 4.490 38.511 o
-2 -9 -5 44.694 50.008 4.178 34.991 o
-2 -9 -4 0.281 1.625 2.009 217.042 o
-2 -9 -3 68.696 68.683 13.279 4.738 o
-2 -9 -2 27.230 28.108 3.159 62.114 o
-2 -9 -1 36.669 39.372 2.897 60.737 o
-2 -9 0 17.331 12.366 1.902 148.835 o
-2 -8 -7 21.675 21.257 3.082 69.569 o
-2 -8 -6 1.412 -0.290 2.197 181.054 o
-2 -8 -5 8.087 6.505 1.655 232.828 o
-2 -8 -4 147.725 149.918 6.787 10.760 o
-2 -8 -3 2.360 2.165 1.857 237.632 o
-2 -8 -2 89.500 79.253 4.704 22.534 o
-2 -8 -1 22.441 20.433 2.130 112.424 o
-2 -8 0 205.035 215.133 6.635 8.494 o
-2 -7 -9 2.935 -0.629 2.313 159.498 o
-2 -7 -8 16.073 16.583 2.939 80.570 o
-2 -7 -7 64.458 63.798 4.632 26.686 o
-2 -7 -6 39.460 47.641 7.269 14.930 o
-2 -7 -5 65.776 59.118 5.829 19.518 o
-2 -7 -4 37.739 34.624 2.541 70.808 o
-2 -7 -3 206.057 206.996 6.329 8.905 o
-2 -7 -2 154.813 165.865 4.618 14.386 o
-2 -7 -1 130.447 128.204 4.590 17.287 o
-2 -7 0 326.522 327.852 8.555 4.523 o
-2 -6 -10 3.707 5.262 2.455 135.250 o
-2 -6 -9 3.769 5.004 2.169 169.051 o
-2 -6 -8 12.385 9.470 2.273 130.362 o
-2 -6 -7 94.160 102.598 8.853 9.062 o
-2 -6 -6 60.525 56.137 3.996 33.311 o
-2 -6 -5 61.014 61.910 8.576 10.560 o
-2 -6 -4 60.245 60.827 3.579 37.243 o
-2 -6 -3 7.432 7.623 1.403 291.829 o
-2 -6 -2 111.733 122.044 3.604 22.920 o
-2 -6 -1 66.430 70.142 2.610 45.283 o
-2 -6 0 111.231 120.964 3.528 23.371 o
-2 -5 -10 10.211 8.101 2.397 125.353 o
-2 -5 -9 4.214 3.119 1.398 357.292 o
-2 -5 -8 15.892 17.044 2.095 130.068 o
-2 -5 -7 192.330 206.114 5.562 10.254 o
-2 -5 -6 45.377 43.551 2.291 68.508 o
-2 -5 -5 103.505 101.336 3.346 26.700 o
-2 -5 -4 373.584 390.094 7.252 4.226 o
-2 -5 -3 102.486 111.297 2.911 28.336 o
-2 -5 -2 655.889 708.244 10.578 1.657 o
-2 -5 -1 77.515 82.412 2.755 38.227 o
-2 -5 0 225.306 216.970 3.987 10.677 o
-2 -4 -11 52.982 50.366 3.829 37.275 o
-2 -4 -10 51.756 47.286 3.487 42.386 o
-2 -4 -9 30.410 37.575 2.806 67.307 o
-2 -4 -8 0.928 1.699 1.208 551.608 o
-2 -4 -7 460.569 476.824 10.023 2.748 o
-2 -4 -6 227.865 230.708 6.746 7.695 o
-2 -4 -5 274.884 283.289 4.718 7.568 o
-2 -4 -4 744.721 794.774 10.161 1.406 o
-2 -4 -3 86.331 86.222 1.845 42.371 o
-2 -4 -2 263.485 275.737 5.902 7.143 o
-2 -4 -1 719.233 750.001 13.984 1.299 o
-2 -4 0 480.413 477.902 7.284 3.087 o
-2 -3 -11 4.545 4.084 1.429 334.829 o
-2 -3 -10 69.348 64.746 4.074 30.285 o
-2 -3 -9 42.122 39.566 2.390 69.874 o
-2 -3 -8 17.906 15.752 1.644 167.195 o
-2 -3 -7 8.765 7.976 0.982 402.777 o
-2 -3 -6 133.788 133.727 2.863 22.201 o
-2 -3 -5 361.565 360.731 5.621 5.010 o
-2 -3 -4 108.269 110.986 2.141 31.038 o
-2 -3 -3 67.087 75.013 1.477 57.174 o
-2 -3 -2 122.315 126.076 1.635 28.469 o
-2 -3 -1 1280.030 1269.890 13.488 0.574 o
-2 -3 0 738.965 700.700 6.901 1.664 o
-2 -2 -12 14.905 10.689 2.237 127.193 o
-2 -2 -11 22.498 25.379 2.241 102.392 o
-2 -2 -10 83.386 83.941 3.527 30.440 o
-2 -2 -9 17.263 16.162 1.248 215.023 o
-2 -2 -8 57.833 54.713 1.906 63.652 o
-2 -2 -7 363.653 374.551 6.046 4.769 o
-2 -2 -6 351.668 364.523 5.770 5.063 o
-2 -2 -5 177.718 188.335 3.407 14.566 o
-2 -2 -4 458.150 473.939 6.298 3.402 o
-2 -2 -3 111.799 112.160 1.844 31.412 o
-2 -2 -2 31.821 38.211 0.635 147.366 o
-2 -2 -1 300.636 276.696 2.782 7.978 o
-2 -2 0 808.384 757.677 7.401 1.427 o
-2 -1 -12 7.335 4.039 2.821 101.213 o
-2 -1 -11 25.490 22.972 2.350 94.681 o
-2 -1 -10 39.660 36.894 2.087 81.762 o
-2 -1 -9 72.483 68.271 2.400 45.779 o
-2 -1 -8 78.298 70.473 2.309 44.137 o
-2 -1 -7 31.193 40.323 2.136 87.131 o
-2 -1 -6 168.630 178.092 3.644 15.090 o
-2 -1 -5 142.275 153.461 3.147 19.344 o
-2 -1 -4 1063.520 1082.440 12.346 0.782 o
-2 -1 -3 1624.590 1585.950 15.280 0.378 o
-2 -1 -2 315.453 300.747 3.160 7.166 o
-2 -1 -1 1019.290 994.554 10.299 0.895 o
-2 -1 0 139.748 127.398 1.347 25.873 o
-2 0 1 68.720 61.671 0.853 66.825 o
-2 0 2 65.888 51.897 0.798 74.037 o
-2 0 3 144.073 145.258 2.035 22.384 o
-2 0 4 247.903 244.410 3.036 10.062 o
-2 0 5 33.418 32.816 0.909 140.845 o
-2 0 6 58.640 65.443 2.433 51.802 o
-2 0 7 1230.310 1279.480 16.754 0.560 o
-2 0 8 187.555 187.705 3.564 13.735 o
-2 0 9 354.181 351.671 6.298 4.934 o
-2 0 10 217.864 229.333 5.980 8.671 o
-2 0 11 49.198 45.678 2.877 53.375 o
-2 0 12 13.252 12.300 1.768 176.372 o
-2 0 13 18.157 23.324 2.147 116.123 o
-2 1 1 401.612 383.757 4.505 4.676 o
-2 1 2 657.871 642.455 7.372 1.947 o
-2 1 3 495.967 460.952 5.954 3.239 o
-2 1 4 3275.400 3164.450 34.314 0.096 o
-2 1 5 205.011 212.898 4.959 10.447 o
-2 1 6 224.243 236.453 4.269 10.070 o
-2 1 7 703.124 690.755 10.492 1.576 o
-2 1 8 208.100 215.348 4.309 11.056 o
-2 1 9 639.647 654.017 10.395 1.775 o
-2 1 10 2.731 1.692 0.957 712.374 o
-2 1 11 86.468 77.842 2.680 37.033 o
-2 1 12 106.348 108.642 4.165 21.867 o
-2 1 13 2.877 3.082 1.382 384.328 o
-2 2 1 3634.330 3676.040 32.857 0.079 o
-2 2 2 165.795 173.084 2.053 18.308 o
-2 2 3 1008.110 1010.610 9.743 0.908 o
-2 2 4 83.828 73.922 1.251 50.380 o
-2 2 5 599.770 608.590 9.111 2.057 o
-2 2 6 82.048 85.250 2.209 41.155 o
-2 2 7 30.330 31.213 1.453 125.290 o
-2 2 8 200.662 213.408 4.353 11.354 o
-2 2 9 89.153 88.663 2.643 35.204 o
-2 2 10 142.640 138.498 3.573 18.863 o
-2 2 11 0.264 -1.050 1.050 797.088 o
-2 2 12 13.677 11.558 1.645 191.966 o
-2 2 13 30.696 28.256 3.271 57.511 o
-2 3 1 755.472 773.201 7.599 1.513 o
-2 3 2 539.750 550.090 5.846 2.730 o
-2 3 3 962.516 927.175 11.527 0.961 o
-2 3 4 310.000 318.808 5.285 6.207 o
-2 3 5 223.721 236.705 4.803 9.564 o
-2 3 6 110.898 125.117 2.862 26.006 o
-2 3 7 114.703 114.853 3.286 24.361 o
-2 3 8 112.049 109.833 2.892 26.918 o
-2 3 9 67.109 63.706 2.267 50.588 o
-2 3 10 177.133 178.702 4.669 12.759 o
-2 3 11 49.098 45.473 2.448 61.886 o
-2 3 12 2.869 3.907 1.288 422.784 o
-2 3 13 4.178 2.603 1.621 284.530 o
-2 4 1 593.965 562.188 10.279 2.043 o
-2 4 2 289.607 271.528 5.057 7.170 o
-2 4 3 103.317 94.141 2.450 32.413 o
-2 4 4 43.107 48.522 1.577 86.534 o
-2 4 5 9.639 8.645 1.053 359.302 o
-2 4 6 126.475 130.194 3.007 22.870 o
-2 4 7 16.349 14.634 1.482 194.046 o
-2 4 8 212.119 219.330 5.049 9.980 o
-2 4 9 77.970 72.303 3.182 35.582 o
-2 4 10 56.775 59.264 2.645 50.863 o
-2 4 11 10.918 12.647 1.528 220.568 o
-2 4 12 5.786 5.101 1.605 264.746 o
-2 5 1 216.079 203.786 5.926 9.122 o
-2 5 2 164.108 173.715 4.148 14.558 o
-2 5 3 73.412 72.925 2.190 46.783 o
-2 5 4 644.933 624.602 10.973 1.756 o
-2 5 5 489.396 503.063 8.904 2.726 o
-2 5 6 229.234 235.475 5.110 9.116 o
-2 5 7 10.153 8.706 1.187 314.394 o
-2 5 8 32.586 30.524 2.096 92.682 o
-2 5 9 143.323 145.102 4.086 17.115 o
-2 5 10 22.677 25.997 2.161 105.923 o
-2 5 11 13.688 13.923 1.869 160.524 o
-2 5 12 3.669 1.530 1.585 305.625 o
-2 6 1 334.898 332.690 9.828 3.965 o
-2 6 2 284.962 291.846 9.049 4.891 o
-2 6 3 111.818 111.340 4.820 18.579 o
-2 6 4 7.342 7.565 1.415 289.584 o
-2 6 5 59.903 54.056 2.816 48.102 o
-2 6 6 28.110 23.300 2.144 100.977 o
-2 6 7 228.064 218.808 6.676 7.882 o
-2 6 8 97.949 95.454 5.217 18.707 o
-2 6 9 15.661 14.192 2.439 108.489 o
-2 6 10 1.031 1.995 2.149 186.622 o
-2 6 11 75.799 73.312 10.310 7.416 o
-2 7 2 170.589 174.364 6.444 10.231 o
-2 7 3 480.626 474.050 13.719 2.113 o
-2 7 4 19.981 15.191 2.137 120.751 o
-2 7 5 2.429 2.093 1.337 423.381 o
-2 7 6 64.838 59.201 3.916 32.979 o
-2 7 7 50.912 47.729 5.571 22.468 o
-2 7 8 7.863 6.419 2.055 168.929 o
-2 7 9 37.174 37.813 3.782 43.471 o
-2 7 10 58.459 58.578 4.556 28.406 o
-2 8 5 15.671 13.178 2.901 83.996 o
-2 8 6 35.625 31.944 3.702 46.104 o
-2 8 7 33.480 32.712 4.286 37.548 o
-2 8 8 4.649 6.469 2.255 153.382 o
-2 8 9 61.812 66.467 7.591 12.903 o
-1 -10 -4 18.710 25.461 4.861 33.338 o
-1 -10 -3 29.346 33.530 5.083 29.055 o
-1 -10 -2 14.311 13.996 4.792 35.736 o
-1 -10 -1 7.263 7.509 2.290 141.895 o
-1 -10 0 20.157 18.921 4.796 34.411 o
-1 -9 -7 14.234 15.022 4.036 48.522 o
-1 -9 -6 26.154 26.772 3.130 63.853 o
-1 -9 -5 13.053 17.111 3.849 52.760 o
-1 -9 -4 8.920 5.707 2.132 157.357 o
-1 -9 -3 10.427 8.804 2.262 136.139 o
-1 -9 -2 72.495 66.546 4.034 29.946 o
-1 -9 -1 158.274 175.265 14.588 3.509 o
-1 -9 0 20.481 16.628 4.042 46.425 o
-1 -8 -8 61.140 65.054 4.724 26.348 o
-1 -8 -7 4.054 4.285 2.029 190.303 o
-1 -8 -6 6.858 4.687 2.075 172.470 o
-1 -8 -5 14.332 14.380 2.393 113.347 o
-1 -8 -4 49.795 51.912 3.934 36.573 o
-1 -8 -3 117.075 118.466 4.624 18.587 o
-1 -8 -2 19.833 18.648 2.061 123.061 o
-1 -8 -1 70.031 75.481 5.104 22.398 o
-1 -8 0 54.297 55.364 3.117 45.571 o
-1 -7 -9 28.296 24.706 3.315 58.348 o
-1 -7 -8 13.425 20.587 6.340 21.068 o
-1 -7 -7 42.379 40.666 4.616 31.453 o
-1 -7 -6 204.731 194.078 6.296 9.151 o
-1 -7 -5 4.377 4.107 1.316 381.070 o
-1 -7 -4 28.530 30.360 2.318 88.464 o
-1 -7 -3 38.502 37.134 3.029 57.341 o
-1 -7 -2 307.404 316.751 8.304 4.874 o
-1 -7 -1 567.289 579.796 13.258 1.804 o
-1 -7 0 115.437 121.219 4.347 19.620 o
-1 -6 -10 84.581 94.166 9.965 7.645 o
-1 -6 -9 6.173 7.363 2.252 148.748 o
-1 -6 -8 8.257 11.281 2.410 124.853 o
-1 -6 -7 73.417 73.767 4.558 25.483 o
-1 -6 -6 61.604 60.937 5.356 22.336 o
-1 -6 -5 55.773 53.737 2.917 48.281 o
-1 -6 -4 1.020 1.237 1.250 522.450 o
-1 -6 -3 0.642 0.511 0.869 1067.720 o
-1 -6 -2 267.982 264.221 5.958 7.131 o
-1 -6 -1 223.420 234.264 5.384 9.041 o
-1 -6 0 235.172 263.858 8.170 6.161 o
-1 -5 -11 0.428 -1.401 2.271 172.776 o
-1 -5 -10 11.692 5.157 2.238 139.607 o
-1 -5 -9 39.863 34.554 3.448 48.847 o
-1 -5 -8 8.318 12.593 2.353 128.395 o
-1 -5 -7 133.113 155.698 6.600 11.488 o
-1 -5 -6 263.843 269.514 7.330 6.253 o
-1 -5 -5 376.180 381.582 7.103 4.285 o
-1 -5 -4 77.618 85.944 2.208 42.556 o
-1 -5 -3 330.244 348.317 11.108 3.527 o
-1 -5 -2 371.947 354.048 6.883 4.530 o
-1 -5 -1 131.093 142.422 3.906 18.753 o
-1 -5 0 498.400 526.461 7.284 2.847 o
-1 -4 -11 60.441 61.124 3.993 32.896 o
-1 -4 -10 42.381 44.987 3.818 40.598 o
-1 -4 -9 43.839 38.437 2.387 69.107 o
-1 -4 -8 175.502 177.184 4.965 12.372 o
-1 -4 -7 56.476 48.264 3.168 45.300 o
-1 -4 -6 114.224 115.336 3.498 23.477 o
-1 -4 -5 24.289 26.138 1.372 152.430 o
-1 -4 -4 317.895 332.451 5.663 5.800 o
-1 -4 -3 795.476 790.230 10.505 1.306 o
-1 -4 -2 1018.530 1020.610 15.780 0.774 o
-1 -4 -1 456.302 438.282 5.029 3.759 o
-1 -4 0 387.057 413.286 4.327 4.712 o
-1 -3 -12 15.596 19.227 2.151 124.212 o
-1 -3 -11 6.433 5.063 1.409 313.770 o
-1 -3 -10 115.875 107.694 3.987 21.659 o
-1 -3 -9 78.026 74.111 3.115 35.956 o
-1 -3 -8 227.115 236.158 6.075 8.259 o
-1 -3 -7 190.798 211.502 5.810 9.898 o
-1 -3 -6 17.914 19.261 0.995 232.893 o
-1 -3 -5 331.798 330.474 6.507 5.268 o
-1 -3 -4 53.443 50.927 1.147 82.720 o
-1 -3 -3 447.250 454.620 4.751 3.810 o
-1 -3 -2 104.910 102.626 1.543 35.602 o
-1 -3 -1 40.221 36.312 0.638 126.973 o
-1 -3 0 596.521 587.193 5.810 2.377 o
-1 -2 -12 53.244 52.794 3.122 46.307 o
-1 -2 -11 2.657 2.572 1.322 422.169 o
-1 -2 -10 75.989 69.943 3.822 30.770 o
-1 -2 -9 94.001 90.764 3.829 26.203 o
-1 -2 -8 38.680 37.726 1.680 95.787 o
-1 -2 -7 4.887 5.601 0.878 590.197 o
-1 -2 -6 88.902 87.496 2.241 38.388 o
-1 -2 -5 185.381 179.300 3.079 14.870 o
-1 -2 -4 59.755 58.077 1.355 69.837 o
-1 -2 -3 637.095 619.613 7.727 2.026 o
-1 -2 -2 561.275 567.150 6.155 2.552 o
-1 -2 -1 449.715 403.177 3.734 4.182 o
-1 -2 0 1054.220 1030.550 10.226 0.847 o
-1 -1 -12 16.735 20.401 2.064 127.254 o
-1 -1 -11 52.246 46.145 2.624 56.479 o
-1 -1 -10 46.595 40.139 1.911 78.481 o
-1 -1 -9 41.785 41.350 1.984 80.532 o
-1 -1 -8 188.074 195.802 4.083 12.714 o
-1 -1 -7 2.210 3.036 0.743 985.717 o
-1 -1 -6 3.768 4.766 0.716 809.299 o
-1 -1 -5 719.719 689.965 9.271 1.609 o
-1 -1 -4 1055.960 1055.490 11.324 0.816 o
-1 -1 -3 914.224 894.001 8.946 1.100 o
-1 -1 -2 6610.100 6894.440 57.014 0.024 o
-1 -1 -1 4044.410 4047.310 34.904 0.065 o
-1 -1 0 855.320 822.586 8.531 1.250 o
-1 0 1 1272.900 1259.730 12.924 0.586 o
-1 0 2 557.727 522.157 7.084 2.584 o
-1 0 3 37.273 40.216 0.783 125.673 o
-1 0 4 7.186 5.410 0.374 807.597 o
-1 0 5 1807.660 1626.620 26.184 0.282 o
-1 0 6 119.497 128.077 3.766 21.051 o
-1 0 7 68.717 62.050 1.984 53.848 o
-1 0 8 203.823 201.683 4.050 11.855 o
-1 0 9 429.600 431.958 7.376 3.560 o
-1 0 10 267.353 270.668 5.364 7.475 o
-1 0 11 13.552 10.780 1.599 200.724 o
-1 0 12 291.227 308.916 7.768 5.354 o
-1 0 13 9.410 8.194 1.764 201.559 o
-1 1 1 309.119 298.728 3.449 7.224 o
-1 1 2 1565.700 1523.060 13.316 0.414 o
-1 1 3 156.076 151.191 1.778 21.003 o
-1 1 4 609.179 595.420 8.827 2.072 o
-1 1 5 66.569 77.308 1.427 57.324 o
-1 1 6 128.544 127.294 2.704 23.837 o
-1 1 7 99.178 104.467 2.544 31.654 o
-1 1 8 93.616 96.513 2.552 33.777 o
-1 1 9 174.277 177.520 3.910 14.266 o
-1 1 10 453.301 442.837 7.738 3.289 o
-1 1 11 96.709 85.933 2.799 32.658 o
-1 1 12 24.020 22.717 1.915 120.728 o
-1 1 13 99.025 109.247 5.451 17.256 o
-1 2 1 397.456 381.324 4.241 4.799 o
-1 2 2 741.174 729.461 7.821 1.585 o
-1 2 3 203.112 189.522 2.000 14.633 o
-1 2 4 542.611 509.156 5.256 2.883 o
-1 2 5 961.618 946.647 16.310 0.834 o
-1 2 6 665.246 667.273 9.996 1.722 o
-1 2 7 431.823 424.829 6.983 3.652 o
-1 2 8 395.233 374.958 6.518 4.296 o
-1 2 9 36.780 35.417 1.707 99.040 o
-1 2 10 82.936 85.207 2.988 34.509 o
-1 2 11 55.135 52.210 2.505 55.580 o
-1 2 12 5.307 4.177 1.255 391.330 o
-1 2 13 20.915 16.193 1.938 132.304 o
-1 3 1 1474.920 1500.200 14.097 0.442 o
-1 3 2 428.210 441.039 4.989 4.003 o
-1 3 3 96.464 99.327 1.455 39.045 o
-1 3 4 1.726 1.526 0.411 2205.620 o
-1 3 5 36.838 35.531 1.287 114.778 o
-1 3 6 83.587 82.596 2.153 41.546 o
-1 3 7 31.137 29.774 1.527 121.341 o
-1 3 8 34.396 35.220 1.829 97.905 o
-1 3 9 340.587 345.796 7.013 4.872 o
-1 3 10 152.436 148.059 4.126 16.227 o
-1 3 11 20.975 18.704 1.982 126.247 o
-1 3 12 48.054 46.168 2.912 53.140 o
-1 4 1 1894.140 1950.250 19.208 0.269 o
-1 4 2 243.490 250.588 3.135 10.043 o
-1 4 3 677.473 698.009 11.379 1.570 o
-1 4 4 306.310 307.968 5.090 6.459 o
-1 4 5 91.384 92.969 2.245 36.850 o
-1 4 6 46.124 42.238 2.548 62.513 o
-1 4 7 452.830 447.993 8.222 3.186 o
-1 4 8 18.953 20.485 1.488 170.460 o
-1 4 9 9.870 9.204 1.289 289.133 o
-1 4 10 14.791 15.680 1.795 162.088 o
-1 4 11 15.086 15.286 2.845 86.148 o
-1 4 12 13.491 16.665 1.952 148.662 o
-1 5 1 230.731 213.252 4.484 10.041 o
-1 5 2 267.816 287.319 5.782 7.017 o
-1 5 3 272.221 261.504 4.937 7.752 o
-1 5 4 107.851 104.094 2.929 27.930 o
-1 5 5 58.351 60.334 2.041 59.286 o
-1 5 6 294.912 304.334 6.008 6.235 o
-1 5 7 31.935 22.216 1.476 130.578 o
-1 5 8 159.566 162.675 4.703 14.027 o
-1 5 9 57.586 55.596 3.024 45.709 o
-1 5 10 26.796 28.477 2.222 95.674 o
-1 5 11 18.372 19.907 3.157 69.513 o
-1 6 1 116.473 107.291 4.167 20.880 o
-1 6 2 125.324 130.628 4.908 16.599 o
-1 6 3 36.399 34.571 2.446 74.672 o
-1 6 4 61.179 61.059 3.825 34.404 o
-1 6 5 129.278 125.354 4.314 18.358 o
-1 6 6 139.345 132.817 5.790 13.416 o
-1 6 7 49.955 45.152 3.573 42.008 o
-1 6 8 59.270 61.214 4.241 30.781 o
-1 6 9 35.649 34.684 3.468 49.939 o
-1 6 10 24.852 26.230 3.964 45.380 o
-1 6 11 23.629 22.074 3.224 63.793 o
-1 7 3 335.116 314.482 9.730 4.067 o
-1 7 4 52.010 53.467 3.362 43.135 o
-1 7 5 57.992 63.469 5.633 20.942 o
-1 7 6 223.962 227.196 8.346 6.459 o
-1 7 7 60.563 56.957 4.118 32.057 o
-1 7 8 28.665 27.573 3.248 59.199 o
-1 7 9 74.013 73.584 4.936 23.081 o
-1 7 10 5.454 7.708 3.119 84.426 o
-1 8 6 49.721 44.791 3.703 40.328 o
-1 8 7 114.870 117.549 5.991 14.425 o
-1 8 8 69.181 71.056 6.346 16.692 o
-1 8 9 4.244 3.692 1.967 201.381 o
0 -10 -5 13.501 12.642 3.556 61.276 o
0 -10 -4 0.588 1.385 3.386 77.514 o
0 -10 -3 1.375 -0.033 1.894 241.503 o
0 -10 -2 37.120 37.708 3.819 42.908 o
0 -10 -1 18.733 12.854 2.521 100.316 o
0 -10 0 28.984 41.878 5.830 22.708 o
0 -9 -7 25.898 29.625 6.758 17.934 o
0 -9 -6 0.221 0.355 1.937 236.916 o
0 -9 -5 4.790 6.372 3.510 68.593 o
0 -9 -4 29.364 28.360 3.176 60.486 o
0 -9 -3 107.870 109.824 5.834 15.435 o
0 -9 -2 3.633 6.140 2.156 169.520 o
0 -9 -1 7.550 6.176 2.102 164.344 o
0 -8 -8 72.012 83.338 7.611 12.311 o
0 -8 -7 62.550 55.731 4.290 30.266 o
0 -8 -6 105.150 111.059 5.830 15.561 o
0 -8 -5 80.890 75.487 4.601 24.240 o
0 -8 -4 106.598 107.107 4.412 20.844 o
0 -8 -3 38.390 38.000 2.682 65.429 o
0 -8 -2 61.699 61.799 4.084 31.749 o
0 -8 -1 83.133 86.190 4.828 22.162 o
0 -8 0 183.988 179.145 10.334 5.710 o
0 -7 -10 42.537 41.549 6.683 17.276 o
0 -7 -9 70.070 68.825 4.905 23.912 o
0 -7 -8 232.809 258.137 9.618 5.290 o
0 -7 -7 123.417 128.537 5.515 15.022 o
0 -7 -6 158.055 144.641 6.416 11.165 o
0 -7 -5 72.695 76.152 4.339 26.913 o
0 -7 -4 15.694 14.435 1.739 167.126 o
0 -7 -3 68.770 71.415 3.283 36.988 o
0 -7 -2 91.428 96.958 3.777 26.433 o
0 -7 -1 241.740 250.062 6.880 7.114 o
0 -6 -11 17.180 13.229 2.854 84.816 o
0 -6 -10 6.612 6.932 2.288 144.307 o
0 -6 -9 63.059 60.538 6.733 15.741 o
0 -6 -8 6.460 4.653 3.071 87.265 o
0 -6 -7 50.095 45.080 2.837 53.843 o
0 -6 -6 89.765 85.785 3.679 28.146 o
0 -6 -5 189.851 189.357 5.791 10.313 o
0 -6 -4 276.505 287.649 6.461 6.436 o
0 -6 -3 28.008 32.137 1.758 113.463 o
0 -6 -2 125.309 140.714 3.743 19.892 o
0 -6 -1 112.429 126.268 3.470 23.134 o
0 -6 0 171.195 184.007 6.340 10.219 o
0 -5 -11 0.442 1.873 2.670 123.758 o
0 -5 -10 28.829 28.115 3.222 59.647 o
0 -5 -9 88.127 90.298 7.245 12.657 o
0 -5 -8 16.098 12.982 2.335 115.622 o
0 -5 -7 2.508 1.626 1.251 476.935 o
0 -5 -6 154.987 162.419 5.586 12.486 o
0 -5 -5 88.844 86.664 2.852 33.996 o
0 -5 -4 236.318 261.228 5.781 7.991 o
0 -5 -3 460.471 493.509 12.405 2.333 o
0 -5 -2 157.150 171.393 4.059 15.255 o
0 -5 -1 197.687 207.537 6.504 8.917 o
0 -4 -12 43.021 42.523 4.045 37.701 o
0 -4 -11 133.474 137.741 7.753 9.684 o
0 -4 -10 9.320 6.781 1.458 265.172 o
0 -4 -9 103.242 97.494 3.551 25.941 o
0 -4 -8 280.174 275.080 6.527 6.441 o
0 -4 -7 17.182 14.092 1.236 223.225 o
0 -4 -6 65.765 62.921 2.094 53.698 o
0 -4 -5 89.741 94.821 2.255 36.981 o
0 -4 -4 9.334 9.527 1.006 371.444 o
0 -4 -3 337.699 344.435 5.956 5.311 o
0 -4 -2 34.174 42.026 1.331 112.056 o
0 -4 -1 262.295 251.400 2.787 9.560 o
0 -4 0 778.438 771.737 11.845 1.293 o
0 -3 -12 59.997 56.773 3.611 37.420 o
0 -3 -11 10.410 10.687 1.687 202.910 o
0 -3 -10 85.284 83.514 3.434 30.806 o
0 -3 -9 338.455 328.216 7.618 4.765 o
0 -3 -8 393.728 380.963 9.616 3.458 o
0 -3 -7 179.114 190.718 4.811 12.152 o
0 -3 -6 12.474 10.930 0.954 329.968 o
0 -3 -5 68.080 75.198 1.457 56.741 o
0 -3 -4 1200.450 1234.020 15.067 0.606 o
0 -3 -3 763.056 776.962 7.627 1.492 o
0 -3 -2 321.322 322.659 3.985 6.506 o
0 -3 -1 1934.350 1958.220 16.956 0.269 o
0 -2 -13 39.403 38.712 2.701 64.098 o
0 -2 -12 31.069 34.753 2.550 75.609 o
0 -2 -11 12.505 9.985 1.634 202.537 o
0 -2 -10 16.293 19.306 1.847 147.267 o
0 -2 -9 69.586 67.356 2.836 42.066 o
0 -2 -8 14.453 15.747 1.798 162.748 o
0 -2 -7 136.203 138.154 3.018 21.171 o
0 -2 -6 256.106 246.102 3.981 9.075 o
0 -2 -5 631.545 621.404 8.369 1.994 o
0 -2 -4 438.895 439.237 4.580 3.981 o
0 -2 -3 1193.730 1199.060 10.661 0.672 o
0 -2 -2 895.657 872.997 8.442 1.153 o
0 -2 -1 1790.920 1785.350 17.431 0.308 o
0 -2 0 2527.400 2464.210 29.894 0.153 o
0 -1 -13 13.013 12.086 1.845 168.340 o
0 -1 -12 2.504 1.681 1.482 356.692 o
0 -1 -11 37.608 34.691 2.736 65.567 o
0 -1 -10 75.138 73.342 3.698 31.624 o
0 -1 -9 173.410 167.428 3.766 14.901 o
0 -1 -8 27.754 26.332 1.407 139.947 o
0 -1 -7 51.828 51.657 2.121 64.816 o
0 -1 -6 27.280 28.451 1.359 141.291 o
0 -1 -5 31.870 30.570 0.791 153.860 o
0 -1 -4 177.683 179.552 2.048 16.930 o
0 -1 -3 206.086 180.629 2.042 14.694 o
0 -1 -2 3112.600 3048.530 28.353 0.108 o
0 -1 -1 1205.830 1192.800 10.698 0.666 o
0 0 2 703.335 674.167 6.466 1.814 o
0 0 3 5017.820 4836.940 44.948 0.043 o
0 0 4 78.361 82.131 1.185 51.526 o
0 0 5 42.207 42.539 1.051 106.174 o
0 0 6 269.475 267.015 4.232 8.209 o
0 0 7 3.486 1.895 0.683 1004.250 o
0 0 8 145.273 149.827 3.349 18.702 o
0 0 9 2.982 1.055 0.901 780.891 o
0 0 10 67.391 64.088 2.347 49.343 o
0 0 11 10.123 8.288 1.259 298.483 o
0 0 12 23.782 26.336 2.236 100.236 o
0 0 13 49.587 52.007 3.549 41.485 o
0 1 1 1205.990 1210.420 12.388 0.642 o
0 1 2 3112.850 3116.650 28.979 0.107 o
0 1 3 206.064 181.816 2.050 14.647 o
0 1 4 177.689 179.442 2.138 16.814 o
0 1 5 32.001 29.877 0.841 152.444 o
0 1 6 27.318 26.583 1.158 156.384 o
0 1 7 51.788 48.002 1.654 75.966 o
0 1 8 27.750 27.477 1.386 139.673 o
0 1 9 173.293 174.574 3.886 14.460 o
0 1 10 75.122 76.771 2.541 41.838 o
0 1 11 37.591 33.041 2.039 87.545 o
0 1 12 2.508 2.612 1.416 378.599 o
0 1 13 13.035 15.607 3.034 79.282 o
0 2 0 2528.280 2486.800 32.557 0.148 o
0 2 1 1790.910 1777.550 13.885 0.321 o
0 2 2 895.755 892.759 7.898 1.152 o
0 2 3 1193.340 1211.480 10.729 0.667 o
0 2 4 438.700 445.834 4.642 3.943 o
0 2 5 631.421 641.998 9.784 1.858 o
0 2 6 256.220 247.904 4.402 8.733 o
0 2 7 136.310 131.460 2.954 21.747 o
0 2 8 14.476 15.321 1.136 252.598 o
0 2 9 69.492 65.543 2.465 46.726 o
0 2 10 16.278 17.761 2.511 100.897 o
0 2 11 12.498 12.215 2.159 137.255 o
0 2 12 31.062 27.766 2.290 88.230 o
0 2 13 39.405 34.382 2.584 68.520 o
0 3 1 1934.960 2004.250 18.056 0.262 o
0 3 2 321.253 327.225 2.840 6.848 o
0 3 3 762.567 803.429 7.595 1.467 o
0 3 4 1199.790 1228.360 13.808 0.623 o
0 3 5 68.100 73.334 1.842 52.989 o
0 3 6 12.469 13.475 1.078 288.955 o
0 3 7 179.079 185.394 4.195 13.282 o
0 3 8 393.719 385.377 7.386 4.029 o
0 3 9 338.390 344.497 7.882 4.581 o
0 3 10 85.299 83.387 3.381 31.198 o
0 3 11 10.407 8.555 1.509 239.902 o
0 3 12 59.997 57.478 3.171 42.624 o
0 4 0 778.675 762.507 15.262 1.146 o
0 4 1 262.643 257.136 3.039 9.303 o
0 4 2 34.225 42.203 0.827 129.289 o
0 4 3 337.399 339.558 5.845 5.391 o
0 4 4 9.380 10.777 1.444 252.173 o
0 4 5 89.631 92.919 2.743 33.858 o
0 4 6 65.783 65.453 2.140 52.456 o
0 4 7 17.209 16.924 1.496 183.460 o
0 4 8 280.112 277.630 6.611 6.370 o
0 4 9 103.264 106.474 3.818 23.965 o
0 4 10 9.312 6.483 1.410 277.771 o
0 4 11 133.501 133.384 4.896 16.003 o
0 4 12 43.065 39.373 2.696 61.846 o
0 5 1 197.629 189.530 5.745 10.114 o
0 5 2 157.109 165.855 11.720 5.017 o
0 5 3 460.178 493.741 10.745 2.593 o
0 5 4 236.239 247.453 6.310 7.711 o
0 5 5 88.841 91.620 4.309 24.076 o
0 5 6 154.996 166.042 6.426 10.891 o
0 5 7 2.513 2.625 1.578 314.175 o
0 5 8 16.112 10.866 2.182 129.028 o
0 5 9 88.154 89.468 5.190 19.804 o
0 5 10 28.849 30.115 3.327 56.578 o
0 5 11 0.444 0.679 1.797 271.944 o
0 6 2 125.407 132.176 7.829 9.816 o
0 6 3 28.038 24.602 2.105 102.092 o
0 6 4 276.612 281.168 8.875 5.120 o
0 6 5 189.831 182.223 6.755 9.148 o
0 6 6 89.743 80.786 4.332 24.486 o
0 6 7 50.100 48.468 3.573 41.501 o
0 6 8 6.466 3.649 1.731 235.890 o
0 6 9 63.056 70.010 7.333 13.559 o
0 6 10 6.588 5.512 2.384 136.056 o
0 6 11 17.148 23.740 4.630 36.710 o
0 7 4 15.688 11.372 1.850 160.223 o
0 7 5 72.648 72.066 4.126 28.767 o
0 7 6 157.970 153.678 6.534 10.812 o
0 7 7 123.429 107.056 5.565 15.474 o
0 7 8 232.719 236.421 9.126 5.722 o
0 7 9 70.064 78.168 6.085 17.507 o
0 7 10 42.523 47.637 4.319 34.019 o
0 8 7 62.630 58.618 5.981 18.997 o
0 8 8 71.972 61.323 5.539 20.469 o
1 -10 -5 18.709 15.022 4.140 45.241 o
1 -10 -4 30.415 31.275 4.514 35.292 o
1 -10 -3 9.242 12.215 2.484 116.527 o
1 -10 -2 46.207 50.438 5.122 25.887 o
1 -10 -1 112.982 118.870 7.255 11.405 o
1 -9 -7 14.771 15.759 4.053 47.916 o
1 -9 -6 13.215 18.105 4.357 42.245 o
1 -9 -5 23.712 21.682 3.569 54.731 o
1 -9 -4 10.928 11.383 3.297 71.624 o
1 -9 -3 1.940 0.291 1.859 245.852 o
1 -9 -2 75.146 82.292 5.894 17.883 o
1 -9 -1 20.242 18.977 2.817 81.257 o
1 -8 -9 4.246 2.597 3.175 84.603 o
1 -8 -8 69.244 72.834 4.886 23.906 o
1 -8 -7 114.845 118.847 6.004 14.358 o
1 -8 -6 49.755 44.504 5.335 24.273 o
1 -8 -5 140.996 138.061 6.551 11.616 o
1 -8 -4 230.909 243.499 9.003 5.783 o
1 -8 -3 6.381 7.515 4.277 46.568 o
1 -8 -2 95.946 92.557 5.043 19.706 o
1 -8 -1 156.852 134.972 6.155 11.867 o
1 -7 -10 5.440 8.008 2.554 120.594 o
1 -7 -9 74.025 77.987 5.161 21.610 o
1 -7 -8 28.637 23.259 2.923 69.615 o
1 -7 -7 60.586 63.622 7.997 11.892 o
1 -7 -6 223.945 253.102 9.040 5.785 o
1 -7 -5 57.964 64.006 3.929 33.718 o
1 -7 -4 52.019 56.252 2.960 48.592 o
1 -7 -3 335.180 333.850 8.597 4.399 o
1 -7 -2 403.807 422.591 10.293 3.115 o
1 -7 -1 691.710 714.411 15.742 1.269 o
1 -6 -11 23.595 24.429 4.179 42.196 o
1 -6 -10 24.845 27.173 4.172 41.694 o
1 -6 -9 35.602 31.471 3.354 52.862 o
1 -6 -8 59.255 61.279 3.352 40.042 o
1 -6 -7 49.946 50.041 2.923 51.291 o
1 -6 -6 139.344 125.982 3.847 18.931 o
1 -6 -5 129.354 128.219 3.796 19.933 o
1 -6 -4 61.197 64.760 2.967 43.669 o
1 -6 -3 36.392 30.065 1.724 102.914 o
1 -6 -2 125.188 144.034 3.851 19.393 o
1 -6 -1 116.499 110.272 3.227 24.688 o
1 -5 -11 18.351 20.163 3.028 74.004 o
1 -5 -10 26.771 29.181 3.327 57.713 o
1 -5 -9 57.581 57.909 4.144 32.245 o
1 -5 -8 159.564 153.563 5.276 13.094 o
1 -5 -7 31.943 26.922 2.155 93.222 o
1 -5 -6 294.913 299.284 6.679 5.925 o
1 -5 -5 58.325 60.015 2.347 54.562 o
1 -5 -4 107.845 105.847 3.117 26.839 o
1 -5 -3 272.201 286.225 6.028 6.789 o
1 -5 -2 267.847 285.390 5.273 7.360 o
1 -5 -1 230.688 217.454 5.624 8.838 o
1 -4 -12 13.488 15.885 2.930 83.361 o
1 -4 -11 15.053 12.393 2.573 102.185 o
1 -4 -10 14.775 9.283 2.316 122.456 o
1 -4 -9 9.855 7.770 2.088 156.853 o
1 -4 -8 18.933 20.772 1.940 131.481 o
1 -4 -7 452.840 461.294 10.890 2.669 o
1 -4 -6 46.108 39.265 1.479 91.139 o
1 -4 -5 91.435 96.675 2.250 36.289 o
1 -4 -4 306.224 310.227 5.301 6.340 o
1 -4 -3 677.235 692.246 13.230 1.460 o
1 -4 -2 243.702 252.714 4.612 8.867 o
1 -4 -1 1894.490 1948.590 24.336 0.252 o
1 -3 -12 48.025 49.868 2.962 51.463 o
1 -3 -11 20.993 20.816 2.518 93.085 o
1 -3 -10 152.420 147.780 4.603 15.101 o
1 -3 -9 340.597 329.316 7.536 4.767 o
1 -3 -8 34.397 34.882 1.757 100.953 o
1 -3 -7 31.179 31.339 1.366 127.599 o
1 -3 -6 83.522 80.571 2.074 42.581 o
1 -3 -5 36.754 35.680 1.241 116.536 o
1 -3 -4 1.715 1.363 0.476 1967.840 o
1 -3 -3 96.330 97.229 1.584 38.761 o
1 -3 -2 427.999 434.171 4.964 4.041 o
1 -3 -1 1475.150 1514.760 15.575 0.430 o
1 -2 -13 20.890 19.487 2.154 114.277 o
1 -2 -12 5.292 5.502 1.510 293.042 o
1 -2 -11 55.121 53.712 2.781 50.659 o
1 -2 -10 82.978 84.656 3.364 31.654 o
1 -2 -9 36.788 36.591 2.552 70.477 o
1 -2 -8 395.213 375.539 7.098 4.137 o
1 -2 -7 431.684 419.512 6.814 3.709 o
1 -2 -6 665.221 652.578 8.454 1.842 o
1 -2 -5 961.736 915.013 16.421 0.844 o
1 -2 -4 542.510 498.635 7.172 2.705 o
1 -2 -3 203.170 181.088 2.149 14.774 o
1 -2 -2 741.164 717.794 8.965 1.545 o
1 -2 -1 397.600 387.024 5.704 4.421 o
1 -1 -13 98.971 103.193 4.229 22.667 o
1 -1 -12 23.982 25.956 2.211 101.480 o
1 -1 -11 96.800 94.637 3.688 26.335 o
1 -1 -10 453.362 438.666 9.517 2.967 o
1 -1 -9 174.273 176.145 4.825 12.693 o
1 -1 -8 93.542 97.670 2.510 33.923 o
1 -1 -7 99.199 104.617 2.100 34.111 o
1 -1 -6 128.580 120.027 2.210 26.062 o
1 -1 -5 66.616 80.301 1.589 54.737 o
1 -1 -4 609.004 599.596 6.086 2.280 o
1 -1 -3 156.009 151.568 1.594 21.296 o
1 -1 -2 1565.620 1489.890 15.302 0.408 o
1 -1 -1 309.211 288.463 3.512 7.315 o
1 0 0 2138.690 2176.670 18.667 0.221 o
1 0 1 34.478 25.120 0.481 165.441 o
1 0 2 1210.750 1180.850 12.307 0.648 o
1 0 3 100.899 99.268 1.222 38.669 o
1 0 4 2335.090 2268.590 21.308 0.190 o
1 0 5 881.427 858.509 21.726 0.775 o
1 0 6 219.397 248.620 4.454 9.848 o
1 0 7 40.548 39.608 1.540 96.540 o
1 0 8 2.177 1.826 0.775 1000.320 o
1 0 9 149.543 149.227 3.573 17.775 o
1 0 10 4.157 2.821 0.954 619.259 o
1 0 11 19.867 19.048 1.975 128.710 o
1 0 12 0.005 0.197 1.455 422.556 o
1 1 0 855.199 844.769 9.790 1.195 o
1 1 1 4044.230 4183.190 40.521 0.062 o
1 1 2 6610.010 6903.170 63.814 0.024 o
1 1 3 914.358 912.183 8.847 1.091 o
1 1 4 1055.970 1055.780 10.753 0.826 o
1 1 5 719.861 696.615 12.450 1.425 o
1 1 6 3.781 4.199 0.684 864.589 o
1 1 7 2.187 1.886 0.699 1137.680 o
1 1 8 188.052 189.482 4.320 12.521 o
1 1 9 41.797 39.172 1.981 81.696 o
1 1 10 46.543 50.265 2.828 54.456 o
1 1 11 52.224 46.108 2.739 54.383 o
1 1 12 16.747 19.698 2.361 107.796 o
1 2 0 1054.640 1041.940 10.790 0.832 o
1 2 1 450.127 418.375 3.992 4.065 o
1 2 2 561.716 573.335 5.424 2.598 o
1 2 3 637.447 622.878 6.208 2.120 o
1 2 4 59.685 58.479 1.068 73.707 o
1 2 5 185.400 182.086 5.589 10.882 o
1 2 6 89.001 88.136 2.527 36.159 o
1 2 7 4.897 5.797 0.904 568.836 o
1 2 8 38.694 42.407 2.302 73.803 o
1 2 9 94.007 90.384 3.397 28.864 o
1 2 10 75.962 69.628 3.155 36.650 o
1 2 11 2.658 2.918 1.415 374.487 o
1 2 12 53.204 52.154 3.404 42.400 o
1 3 0 596.424 599.977 5.906 2.344 o
1 3 1 40.169 35.728 0.648 127.561 o
1 3 2 104.893 104.727 1.515 35.436 o
1 3 3 447.348 465.838 4.792 3.755 o
1 3 4 53.417 52.885 1.612 73.143 o
1 3 5 331.828 339.465 9.608 4.039 o
1 3 6 17.915 16.244 1.349 198.795 o
1 3 7 190.809 202.872 5.679 10.206 o
1 3 8 227.048 229.451 7.206 7.322 o
1 3 9 77.979 70.912 3.063 36.842 o
1 3 10 115.852 114.254 4.128 20.752 o
1 3 11 6.440 2.525 1.759 233.539 o
1 3 12 15.568 19.086 2.111 127.366 o
1 4 0 387.170 409.924 5.185 4.536 o
1 4 1 456.523 451.999 5.894 3.562 o
1 4 2 1018.640 1012.280 10.435 0.885 o
1 4 3 795.178 828.859 12.726 1.188 o
1 4 4 317.845 347.808 6.845 5.198 o
1 4 5 24.309 24.123 1.624 137.577 o
1 4 6 114.243 112.799 3.339 24.333 o
1 4 7 56.491 50.897 3.416 41.469 o
1 4 8 175.489 179.323 5.487 11.465 o
1 4 9 43.859 44.651 2.502 64.221 o
1 4 10 42.328 42.883 2.641 62.505 o
1 4 11 60.388 63.669 4.609 27.387 o
1 5 0 498.425 503.944 9.141 2.647 o
1 5 1 131.086 133.316 3.301 21.131 o
1 5 2 371.922 330.358 9.178 3.909 o
1 5 3 330.151 348.634 9.931 3.907 o
1 5 4 77.658 81.284 3.790 29.746 o
1 5 5 376.168 352.144 10.657 3.377 o
1 5 6 263.848 280.596 10.403 4.488 o
1 5 7 133.205 138.881 6.029 13.007 o
1 5 8 8.319 8.840 3.488 66.884 o
1 5 9 39.830 39.321 3.489 47.307 o
1 5 10 11.688 12.479 5.490 28.117 o
1 5 11 0.431 0.695 2.251 174.758 o
1 6 3 0.645 0.912 1.116 664.638 o
1 6 4 1.013 -0.546 1.202 583.049 o
1 6 5 55.749 57.919 3.436 40.439 o
1 6 6 61.578 67.523 6.058 18.428 o
1 6 7 73.425 67.002 4.289 27.806 o
1 6 8 8.249 6.441 2.037 170.060 o
1 6 9 6.167 9.275 2.202 151.887 o
1 6 10 84.527 90.449 13.189 4.683 o
1 7 6 204.707 203.517 7.769 7.469 o
1 7 7 42.349 50.555 3.887 38.988 o
1 7 8 13.424 17.502 2.698 94.095 o
1 7 9 28.299 30.846 3.390 55.188 o
2 -10 -5 3.832 6.132 2.467 132.954 o
2 -10 -4 8.945 9.957 2.450 121.518 o
2 -10 -3 13.092 14.962 2.790 90.903 o
2 -10 -2 5.574 4.986 2.348 142.575 o
2 -10 -1 105.003 116.194 6.328 13.979 o
2 -9 -7 5.951 9.149 3.553 65.771 o
2 -9 -6 12.615 13.304 2.473 111.314 o
2 -9 -5 20.516 22.482 5.191 29.651 o
2 -9 -4 10.424 13.678 3.540 62.936 o
2 -9 -3 1.539 2.318 1.783 261.286 o
2 -9 -2 50.896 52.574 4.149 33.891 o
2 -9 -1 18.396 19.809 2.828 82.018 o
2 -8 -9 61.861 76.841 7.575 12.794 o
2 -8 -8 4.651 4.636 3.193 82.590 o
2 -8 -7 33.465 45.003 5.630 23.609 o
2 -8 -6 35.642 39.155 3.537 47.875 o
2 -8 -5 15.668 19.497 2.718 89.662 o
2 -8 -4 214.393 210.340 8.296 6.772 o
2 -8 -3 74.550 65.166 4.683 25.039 o
2 -8 -2 150.666 146.468 5.254 13.753 o
2 -8 -1 105.481 107.563 7.369 11.554 o
2 -7 -10 58.520 47.817 4.255 31.893 o
2 -7 -9 37.172 34.060 3.464 49.586 o
2 -7 -8 7.837 7.945 2.731 104.155 o
2 -7 -7 50.916 47.915 3.774 38.718 o
2 -7 -6 64.782 62.830 4.102 30.972 o
2 -7 -5 2.432 1.634 1.288 455.737 o
2 -7 -4 19.967 15.967 1.845 142.154 o
2 -7 -3 480.499 468.925 17.355 1.674 o
2 -7 -2 170.526 169.895 8.316 7.823 o
2 -7 -1 183.103 181.033 5.680 10.848 o
2 -6 -11 75.787 84.087 5.463 19.698 o
2 -6 -10 1.038 -2.087 2.087 201.740 o
2 -6 -9 15.661 15.640 2.069 134.153 o
2 -6 -8 97.969 86.109 3.920 25.455 o
2 -6 -7 228.034 225.541 5.769 8.660 o
2 -6 -6 28.115 29.538 2.714 74.568 o
2 -6 -5 59.901 58.949 2.929 45.616 o
2 -6 -4 7.353 6.984 1.389 299.631 o
2 -6 -3 111.769 110.754 4.008 21.853 o
2 -6 -2 284.907 313.809 9.552 4.555 o
2 -6 -1 335.066 344.874 8.592 4.351 o
2 -5 -12 3.663 3.594 4.556 42.194 o
2 -5 -11 13.726 15.113 2.811 89.164 o
2 -5 -10 22.646 22.348 3.052 69.594 o
2 -5 -9 143.326 133.864 6.981 10.796 o
2 -5 -8 32.597 30.690 2.385 81.645 o
2 -5 -7 10.160 9.687 1.323 276.287 o
2 -5 -6 229.227 239.568 5.707 8.503 o
2 -5 -5 489.292 502.480 9.882 2.584 o
2 -5 -4 644.794 666.499 12.349 1.608 o
2 -5 -3 73.454 82.756 3.741 30.728 o
2 -5 -2 164.197 177.490 4.230 14.281 o
2 -5 -1 215.785 225.840 5.986 8.765 o
2 -4 -12 5.769 6.581 2.156 162.258 o
2 -4 -11 10.937 14.457 3.327 69.598 o
2 -4 -10 56.757 60.556 8.401 11.044 o
2 -4 -9 77.940 67.831 3.443 33.788 o
2 -4 -8 212.152 197.789 7.498 7.646 o
2 -4 -7 16.346 15.934 1.909 146.091 o
2 -4 -6 126.518 127.077 3.626 20.867 o
2 -4 -5 9.671 7.244 0.998 387.381 o
2 -4 -4 43.047 49.399 2.063 73.626 o
2 -4 -3 103.157 100.453 3.377 26.660 o
2 -4 -2 289.532 284.343 7.218 5.826 o
2 -4 -1 593.782 575.756 9.194 2.124 o
2 -3 -13 4.178 8.583 2.436 132.816 o
2 -3 -12 2.866 0.968 2.069 195.224 o
2 -3 -11 49.099 48.200 2.669 56.703 o
2 -3 -10 177.160 175.918 5.051 12.180 o
2 -3 -9 67.109 60.760 2.423 49.213 o
2 -3 -8 112.017 115.025 2.878 26.563 o
2 -3 -7 114.808 120.132 2.811 26.002 o
2 -3 -6 110.931 124.544 2.744 26.555 o
2 -3 -5 223.623 235.269 6.707 7.772 o
2 -3 -4 309.973 307.658 9.292 4.471 o
2 -3 -3 962.699 920.384 12.764 0.934 o
2 -3 -2 539.894 526.734 7.458 2.616 o
2 -3 -1 755.346 762.082 8.095 1.506 o
2 -2 -13 30.688 31.016 2.531 78.127 o
2 -2 -12 13.674 11.273 1.720 182.705 o
2 -2 -11 0.265 0.430 1.301 516.838 o
2 -2 -10 142.623 138.154 4.779 15.581 o
2 -2 -9 89.173 92.139 2.911 32.871 o
2 -2 -8 200.595 206.986 4.160 11.741 o
2 -2 -7 30.366 27.863 1.355 134.250 o
2 -2 -6 82.051 91.257 2.223 40.056 o
2 -2 -5 599.576 582.915 13.095 1.740 o
2 -2 -4 83.857 71.551 1.344 50.266 o
2 -2 -3 1007.870 997.781 10.584 0.899 o
2 -2 -2 165.695 166.384 1.964 18.786 o
2 -2 -1 3634.080 3604.790 29.817 0.081 o
2 -1 -13 2.874 1.494 1.581 315.511 o
2 -1 -12 106.376 98.622 4.167 22.395 o
2 -1 -11 86.460 77.446 3.517 30.550 o
2 -1 -10 2.732 1.676 1.094 583.056 o
2 -1 -9 639.754 622.703 10.914 1.776 o
2 -1 -8 208.005 206.354 4.134 11.458 o
2 -1 -7 703.115 699.285 9.044 1.649 o
2 -1 -6 224.176 224.471 4.847 9.706 o
2 -1 -5 204.930 202.510 3.061 12.983 o
2 -1 -4 3275.170 3167.370 46.343 0.087 o
2 -1 -3 496.084 451.269 5.466 3.338 o
2 -1 -2 658.208 638.477 5.582 2.056 o
2 -1 -1 401.586 374.303 3.387 4.964 o
2 0 0 357.472 348.362 3.182 5.861 o
2 0 1 61.534 67.411 0.850 70.451 o
2 0 2 33.756 28.056 0.769 152.660 o
2 0 3 176.611 180.845 2.696 16.036 o
2 0 4 923.280 915.803 11.982 0.998 o
2 0 5 2592.810 2680.790 38.796 0.129 o
2 0 6 620.572 638.953 10.666 1.824 o
2 0 7 131.965 139.564 3.203 21.000 o
2 0 8 197.403 222.296 4.543 11.068 o
2 0 9 18.365 9.792 1.810 158.603 o
2 0 10 40.597 39.662 2.728 62.456 o
2 0 11 0.652 2.498 1.417 410.167 o
2 0 12 22.754 21.878 2.224 105.429 o
2 1 0 139.663 132.275 2.088 23.762 o
2 1 1 1019.810 1031.140 11.299 0.859 o
2 1 2 315.305 308.108 3.415 6.994 o
2 1 3 1624.320 1621.270 18.929 0.355 o
2 1 4 1063.720 1099.470 21.084 0.619 o
2 1 5 142.253 150.739 3.307 19.055 o
2 1 6 168.547 185.297 3.668 14.814 o
2 1 7 31.146 41.945 1.885 95.564 o
2 1 8 78.240 67.680 2.822 39.505 o
2 1 9 72.480 67.710 3.024 39.126 o
2 1 10 39.692 39.561 2.523 68.144 o
2 1 11 25.475 25.569 2.434 89.443 o
2 1 12 7.330 8.432 1.746 214.380 o
2 2 0 808.425 769.539 7.223 1.422 o
2 2 1 300.690 291.887 3.129 7.639 o
2 2 2 31.799 38.009 0.703 145.573 o
2 2 3 111.869 119.302 2.124 29.493 o
2 2 4 457.913 477.093 11.728 2.477 o
2 2 5 177.693 202.424 4.726 12.084 o
2 2 6 351.767 378.093 7.877 4.292 o
2 2 7 363.677 387.923 8.300 4.014 o
2 2 8 57.860 52.078 2.529 53.859 o
2 2 9 17.255 13.649 1.658 171.832 o
2 2 10 83.337 80.436 3.468 31.212 o
2 2 11 22.482 21.525 2.009 118.825 o
2 2 12 14.890 14.135 2.037 140.449 o
2 3 0 738.653 738.672 7.927 1.575 o
2 3 1 1279.860 1331.300 12.347 0.570 o
2 3 2 122.113 132.070 2.369 25.594 o
2 3 3 67.039 76.475 2.180 48.841 o
2 3 4 108.330 116.480 3.923 22.282 o
2 3 5 361.572 380.292 7.693 4.251 o
2 3 6 133.745 137.628 4.404 17.243 o
2 3 7 8.761 9.451 1.269 304.164 o
2 3 8 17.890 13.956 1.580 177.407 o
2 3 9 42.118 39.449 3.245 50.849 o
2 3 10 69.399 70.046 3.305 36.773 o
2 3 11 4.535 6.055 1.498 301.250 o
2 4 0 480.251 487.207 8.775 2.830 o
2 4 1 719.253 722.959 12.681 1.390 o
2 4 2 263.297 254.520 5.266 7.823 o
2 4 3 86.361 85.378 3.591 29.332 o
2 4 4 744.661 804.400 20.604 0.932 o
2 4 5 274.811 279.859 8.886 5.141 o
2 4 6 227.795 233.447 8.126 6.525 o
2 4 7 460.617 495.956 14.633 2.014 o
2 4 8 0.927 -0.998 1.743 287.232 o
2 4 9 30.405 34.569 5.045 29.230 o
2 4 10 51.784 44.260 6.166 19.178 o
2 4 11 52.974 52.676 4.466 30.398 o
2 5 0 225.207 219.101 6.906 7.729 o
2 5 1 77.454 86.732 3.676 30.158 o
2 5 2 655.811 658.760 11.931 1.622 o
2 5 3 102.475 108.369 3.039 27.921 o
2 5 4 373.502 397.344 12.901 2.738 o
2 5 5 103.462 107.760 4.854 19.262 o
2 5 6 45.397 43.274 3.223 49.263 o
2 5 7 192.284 200.057 7.707 7.799 o
2 5 8 15.869 22.689 8.771 11.261 o
2 5 9 4.194 2.154 2.023 195.220 o
2 5 10 10.226 8.813 2.689 103.355 o
2 6 0 111.161 111.414 4.445 20.075 o
2 6 4 60.276 58.352 3.312 40.646 o
2 6 5 61.054 60.983 8.940 9.832 o
2 6 6 60.517 60.559 3.833 34.517 o
2 6 7 94.235 104.100 10.030 7.392 o
2 6 8 12.408 13.346 2.527 107.979 o
2 6 9 3.783 3.185 2.128 177.866 o
2 6 10 3.726 2.386 2.376 146.743 o
2 7 7 64.504 56.180 4.025 32.301 o
2 7 8 16.072 16.719 2.777 87.783 o
2 7 9 2.942 2.190 2.013 202.198 o
3 -10 -4 13.134 12.437 2.509 108.804 o
3 -10 -3 1.460 1.392 2.021 209.270 o
3 -10 -2 39.684 40.466 11.205 6.783 o
3 -10 -1 36.925 39.723 3.113 55.625 o
3 -9 -7 15.680 15.320 2.739 90.745 o
3 -9 -6 1.164 0.337 1.993 219.032 o
3 -9 -5 44.615 41.407 3.944 38.779 o
3 -9 -4 12.598 13.268 2.862 88.603 o
3 -9 -3 14.889 18.905 2.336 112.790 o
3 -9 -2 149.336 141.417 5.527 13.341 o
3 -9 -1 40.014 43.253 3.390 48.292 o
3 -8 -8 14.961 6.945 3.034 81.165 o
3 -8 -7 33.984 37.037 3.602 47.612 o
3 -8 -6 5.200 7.948 1.741 228.477 o
3 -8 -5 5.709 6.655 1.685 241.198 o
3 -8 -4 47.766 50.015 3.187 47.751 o
3 -8 -3 55.565 49.515 3.508 40.723 o
3 -8 -2 12.262 13.051 1.896 163.363 o
3 -8 -1 72.391 66.367 3.559 34.083 o
3 -7 -10 27.639 18.913 4.392 38.609 o
3 -7 -9 73.696 82.448 7.361 12.937 o
3 -7 -8 18.497 21.644 3.896 49.235 o
3 -7 -7 19.352 23.174 3.506 57.786 o
3 -7 -6 121.171 124.737 6.329 13.106 o
3 -7 -5 13.301 10.559 1.775 178.604 o
3 -7 -4 75.996 71.349 4.455 25.997 o
3 -7 -3 223.184 217.139 6.603 8.078 o
3 -7 -2 27.430 24.499 2.214 97.733 o
3 -7 -1 133.311 120.771 5.966 13.548 o
3 -6 -11 14.407 10.992 2.457 111.444 o
3 -6 -10 170.300 174.150 6.256 10.530 o
3 -6 -9 78.740 76.621 3.884 29.256 o
3 -6 -8 77.544 80.607 3.867 29.251 o
3 -6 -7 9.554 10.663 2.135 148.546 o
3 -6 -6 288.926 298.921 15.190 2.679 o
3 -6 -5 47.082 47.111 3.528 43.190 o
3 -6 -4 216.636 220.207 6.482 8.314 o
3 -6 -3 1.816 1.407 1.165 561.944 o
3 -6 -2 195.604 194.649 5.831 9.986 o
3 -6 -1 138.146 140.329 4.681 16.060 o
3 -5 -11 23.731 24.915 3.042 68.433 o
3 -5 -10 106.160 109.110 4.710 19.558 o
3 -5 -9 93.376 87.344 4.055 25.215 o
3 -5 -8 41.732 41.958 2.351 70.302 o
3 -5 -7 108.980 105.532 7.599 10.995 o
3 -5 -6 60.500 59.266 2.633 49.448 o
3 -5 -5 179.424 180.407 9.725 6.237 o
3 -5 -4 169.846 175.544 6.579 10.034 o
3 -5 -3 106.842 100.509 5.763 15.974 o
3 -5 -2 168.479 160.542 4.878 13.265 o
3 -5 -1 168.055 175.493 5.133 12.457 o
3 -4 -12 40.752 39.148 10.322 7.916 o
3 -4 -11 26.624 24.748 3.077 65.676 o
3 -4 -10 61.516 57.647 3.400 39.357 o
3 -4 -9 38.059 34.868 2.159 82.063 o
3 -4 -8 544.927 547.838 11.116 2.134 o
3 -4 -7 147.757 152.849 4.293 15.981 o
3 -4 -6 116.198 128.212 3.701 21.649 o
3 -4 -5 564.035 581.734 11.079 2.026 o
3 -4 -4 27.280 29.244 1.516 130.960 o
3 -4 -3 190.884 161.741 4.534 12.725 o
3 -4 -2 31.745 33.923 1.900 99.609 o
3 -4 -1 116.980 129.120 3.055 24.025 o
3 -3 -12 3.119 3.302 1.959 208.972 o
3 -3 -11 60.793 58.591 4.283 30.381 o
3 -3 -10 57.812 57.529 3.266 42.069 o
3 -3 -9 13.014 16.595 1.648 183.701 o
3 -3 -8 2.926 1.885 1.055 604.306 o
3 -3 -7 197.801 212.802 5.227 10.378 o
3 -3 -6 165.482 168.084 4.312 14.323 o
3 -3 -5 58.804 59.040 1.665 65.438 o
3 -3 -4 246.270 242.050 4.607 8.953 o
3 -3 -3 207.926 203.215 3.471 12.329 o
3 -3 -2 212.878 222.062 3.710 11.381 o
3 -3 -1 823.011 839.905 10.261 1.231 o
3 -2 -13 24.853 22.851 2.684 81.056 o
3 -2 -12 31.331 29.418 2.281 87.435 o
3 -2 -11 114.004 118.680 4.155 20.608 o
3 -2 -10 178.288 175.635 4.471 13.116 o
3 -2 -9 8.770 8.291 1.050 376.565 o
3 -2 -8 221.710 218.522 4.399 10.361 o
3 -2 -7 53.798 55.387 1.837 67.535 o
3 -2 -6 199.946 197.123 3.801 12.473 o
3 -2 -5 813.938 838.775 17.644 0.969 o
3 -2 -4 625.621 624.227 7.811 2.050 o
3 -2 -3 85.047 80.792 1.473 46.655 o
3 -2 -2 261.887 248.723 2.608 9.722 o
3 -2 -1 462.549 447.622 4.264 3.779 o
3 -1 -13 2.085 -0.132 1.319 463.074 o
3 -1 -12 5.156 8.107 1.594 260.808 o
3 -1 -11 7.933 6.298 1.535 260.325 o
3 -1 -10 51.595 48.403 2.635 56.029 o
3 -1 -9 81.875 71.353 2.334 42.463 o
3 -1 -8 200.032 206.417 4.224 11.697 o
3 -1 -7 32.738 30.929 1.433 121.422 o
3 -1 -6 210.577 221.113 4.989 10.070 o
3 -1 -5 1791.180 1816.630 36.533 0.226 o
3 -1 -4 38.203 33.495 1.016 123.946 o
3 -1 -3 1918.180 1905.150 22.819 0.257 o
3 -1 -2 2102.010 2082.140 17.539 0.234 o
3 -1 -1 1611.110 1669.700 16.551 0.364 o
3 0 0 1330.980 1375.470 11.778 0.539 o
3 0 1 3488.440 3516.520 31.544 0.085 o
3 0 2 374.291 401.150 4.667 4.864 o
3 0 3 8.966 7.498 0.577 563.062 o
3 0 4 119.776 121.396 2.457 26.525 o
3 0 5 130.541 130.299 3.088 22.078 o
3 0 6 6.608 7.859 1.009 436.600 o
3 0 7 60.623 54.945 2.372 54.290 o
3 0 8 13.030 10.024 1.712 188.976 o
3 0 9 23.412 12.911 2.255 109.292 o
3 0 10 3.851 1.810 1.223 459.441 o
3 0 11 9.887 8.098 1.682 212.950 o
3 1 0 16.721 16.406 0.568 310.192 o
3 1 1 191.848 200.604 2.649 14.315 o
3 1 2 155.656 161.381 2.494 19.116 o
3 1 3 25.199 34.719 1.485 131.213 o
3 1 4 396.631 391.483 7.662 3.906 o
3 1 5 12.975 15.448 1.102 270.287 o
3 1 6 110.999 113.116 3.503 24.020 o
3 1 7 35.820 39.090 2.969 59.564 o
3 1 8 97.893 98.279 3.579 26.522 o
3 1 9 47.055 44.370 3.244 48.088 o
3 1 10 24.402 25.621 2.142 104.672 o
3 1 11 10.404 10.383 1.883 175.816 o
3 2 0 72.156 74.062 1.417 55.126 o
3 2 1 831.879 854.009 11.941 1.150 o
3 2 2 48.028 45.537 1.937 74.079 o
3 2 3 74.589 80.558 2.396 42.800 o
3 2 4 189.334 196.931 4.607 11.864 o
3 2 5 137.051 138.355 3.909 18.399 o
3 2 6 257.253 264.930 7.174 6.497 o
3 2 7 31.828 31.460 2.021 96.104 o
3 2 8 142.632 139.436 4.376 16.602 o
3 2 9 15.692 12.578 1.569 190.654 o
3 2 10 6.276 5.838 1.443 301.116 o
3 2 11 38.745 44.433 2.799 60.487 o
3 3 0 800.998 814.362 9.939 1.299 o
3 3 1 395.757 400.678 6.138 4.263 o
3 3 2 811.539 834.978 14.439 1.095 o
3 3 3 85.628 92.043 2.574 36.188 o
3 3 4 240.016 258.915 5.627 8.056 o
3 3 5 478.675 512.178 10.022 2.588 o
3 3 6 180.856 180.003 5.843 10.704 o
3 3 7 2.628 1.146 1.599 313.678 o
3 3 8 8.901 10.129 1.498 247.129 o
3 3 9 56.131 56.601 2.874 48.233 o
3 3 10 0.065 -0.599 2.129 197.887 o
3 3 11 30.782 35.932 3.834 44.663 o
3 4 0 278.336 274.687 8.425 5.376 o
3 4 1 43.179 42.889 1.696 86.467 o
3 4 2 202.468 211.968 5.738 9.616 o
3 4 3 510.451 530.480 14.363 1.883 o
3 4 4 8.211 6.482 2.011 173.608 o
3 4 5 212.451 216.827 7.633 7.333 o
3 4 6 256.316 247.947 15.666 2.731 o
3 4 7 245.447 234.760 9.535 5.330 o
3 4 8 28.424 25.489 2.939 68.533 o
3 4 9 122.482 120.123 6.310 13.192 o
3 4 10 5.766 7.133 2.480 127.100 o
3 5 0 191.712 197.612 6.801 8.848 o
3 5 1 144.099 144.247 5.508 13.567 o
3 5 2 90.557 81.231 3.915 26.865 o
3 5 3 115.114 116.205 4.413 19.624 o
3 5 4 18.710 20.798 2.264 109.909 o
3 5 5 206.108 218.700 7.775 7.301 o
3 5 6 134.988 146.009 7.553 9.872 o
3 5 7 154.437 149.338 6.722 10.674 o
3 5 8 25.385 26.532 3.596 52.535 o
3 5 9 76.897 76.019 5.110 21.718 o
3 5 10 32.283 35.609 3.704 46.536 o
3 6 0 167.385 163.123 14.022 3.734 o
3 6 1 34.621 30.269 2.469 77.179 o
3 6 6 17.652 15.468 2.402 107.026 o
3 6 7 6.945 5.322 3.373 72.912 o
3 6 8 2.140 6.978 2.304 153.444 o
3 6 9 17.736 14.501 3.011 77.148 o
4 -9 -6 29.334 27.409 2.781 72.254 o
4 -9 -5 28.514 26.536 2.705 75.730 o
4 -9 -4 0.517 0.357 1.634 328.176 o
4 -9 -3 3.521 2.676 1.681 272.594 o
4 -9 -2 14.975 15.490 2.224 123.426 o
4 -9 -1 81.906 89.704 5.439 19.155 o
4 -8 -8 5.703 4.798 2.262 152.051 o
4 -8 -7 5.505 5.723 2.296 147.503 o
4 -8 -6 7.247 7.586 1.835 201.533 o
4 -8 -5 24.541 29.899 2.701 77.681 o
4 -8 -4 166.598 166.943 6.064 11.086 o
4 -8 -3 11.315 7.957 1.807 187.262 o
4 -8 -2 42.736 36.227 2.854 59.314 o
4 -8 -1 18.206 15.937 2.139 123.217 o
4 -7 -9 84.680 85.677 5.385 19.339 o
4 -7 -8 32.049 36.689 3.653 47.359 o
4 -7 -7 23.022 26.731 5.276 28.313 o
4 -7 -6 100.387 97.690 4.439 21.810 o
4 -7 -5 43.334 47.529 3.071 51.970 o
4 -7 -4 10.057 7.532 2.643 107.393 o
4 -7 -3 30.907 29.784 2.485 80.068 o
4 -7 -2 206.287 219.685 6.869 8.168 o
4 -7 -1 18.998 19.506 2.034 125.761 o
4 -6 -10 5.276 3.349 3.078 88.503 o
4 -6 -9 117.761 120.778 6.192 13.677 o
4 -6 -8 39.010 46.300 3.746 42.358 o
4 -6 -7 16.741 13.330 2.341 113.894 o
4 -6 -6 131.393 115.824 5.693 14.453 o
4 -6 -5 298.855 299.834 10.201 4.224 o
4 -6 -4 78.649 73.950 3.542 32.174 o
4 -6 -3 233.086 241.261 6.992 7.273 o
4 -6 -2 286.766 277.679 7.644 5.677 o
4 -6 -1 223.121 231.589 6.698 7.831 o
4 -5 -11 47.007 53.278 3.493 42.814 o
4 -5 -10 30.435 22.210 3.434 55.084 o
4 -5 -9 4.682 5.392 1.487 306.523 o
4 -5 -8 39.321 36.148 2.656 66.096 o
4 -5 -7 282.115 283.586 14.394 2.932 o
4 -5 -6 69.738 57.088 6.060 18.246 o
4 -5 -5 243.742 266.048 9.152 5.409 o
4 -5 -4 551.101 533.620 15.272 1.695 o
4 -5 -3 453.283 457.081 10.897 2.675 o
4 -5 -2 208.969 216.904 6.197 8.843 o
4 -5 -1 33.949 31.875 1.670 107.607 o
4 -4 -12 30.378 29.689 3.412 54.085 o
4 -4 -11 4.858 5.630 1.648 259.217 o
4 -4 -10 12.502 14.285 1.711 182.472 o
4 -4 -9 10.313 10.628 1.662 207.561 o
4 -4 -8 8.951 7.938 1.377 282.401 o
4 -4 -7 13.762 12.512 1.390 226.409 o
4 -4 -6 29.727 27.828 2.301 89.202 o
4 -4 -5 274.039 271.187 7.179 6.176 o
4 -4 -4 196.926 205.423 7.234 8.149 o
4 -4 -3 6.416 7.058 1.541 267.844 o
4 -4 -2 110.403 118.550 6.875 12.335 o
4 -4 -1 274.645 273.041 5.423 7.251 o
4 -3 -12 11.952 11.948 2.478 112.954 o
4 -3 -11 23.602 20.786 2.356 98.069 o
4 -3 -10 140.539 147.508 4.677 15.680 o
4 -3 -9 15.748 15.230 1.815 157.755 o
4 -3 -8 24.707 24.945 2.413 91.580 o
4 -3 -7 203.718 198.780 5.119 10.553 o
4 -3 -6 341.646 353.466 7.550 4.623 o
4 -3 -5 362.619 378.889 8.082 4.128 o
4 -3 -4 63.053 53.319 2.440 52.469 o
4 -3 -3 345.539 340.857 8.029 4.475 o
4 -3 -2 251.344 256.136 5.477 7.933 o
4 -3 -1 27.871 34.336 1.464 126.703 o
4 -2 -13 85.448 90.083 5.741 17.633 o
4 -2 -12 18.849 19.730 3.732 53.056 o
4 -2 -11 165.858 164.976 4.538 13.946 o
4 -2 -10 56.746 51.812 2.180 60.490 o
4 -2 -9 107.806 110.086 3.029 26.935 o
4 -2 -8 163.311 154.046 3.892 15.782 o
4 -2 -7 2.785 2.100 0.787 907.788 o
4 -2 -6 37.601 35.267 1.446 107.655 o
4 -2 -5 57.454 54.599 1.678 67.902 o
4 -2 -4 93.668 93.887 2.177 36.534 o
4 -2 -3 428.995 429.332 6.144 3.828 o
4 -2 -2 206.994 218.391 3.462 12.009 o
4 -2 -1 24.874 32.133 1.662 124.686 o
4 -1 -13 9.140 12.989 1.803 186.416 o
4 -1 -12 35.654 36.210 2.538 71.855 o
4 -1 -11 11.831 13.527 1.517 214.806 o
4 -1 -10 23.075 18.207 1.461 162.310 o
4 -1 -9 92.829 89.543 2.725 33.627 o
4 -1 -8 247.677 237.164 4.758 8.859 o
4 -1 -7 127.321 134.821 3.155 21.968 o
4 -1 -6 48.210 52.680 1.930 71.105 o
4 -1 -5 273.837 256.385 4.941 7.772 o
4 -1 -4 216.197 223.780 4.599 10.254 o
4 -1 -3 1003.010 1002.230 10.858 0.897 o
4 -1 -2 15.224 13.466 0.598 344.980 o
4 -1 -1 142.463 148.205 3.056 19.832 o
4 0 0 150.491 151.970 2.480 20.192 o
4 0 1 750.373 796.132 13.480 1.243 o
4 0 2 504.107 490.632 7.014 2.951 o
4 0 3 2.217 1.990 0.647 1234.930 o
4 0 4 108.704 116.653 3.277 25.118 o
4 0 5 244.069 248.793 4.833 8.733 o
4 0 6 505.797 526.828 9.678 2.491 o
4 0 7 2.715 2.492 1.063 594.244 o
4 0 8 14.167 12.730 1.571 197.103 o
4 0 9 45.326 47.644 2.537 61.620 o
4 0 10 13.927 15.243 1.732 172.673 o
4 1 0 206.076 205.935 3.602 12.198 o
4 1 1 211.226 212.000 4.192 11.132 o
4 1 2 874.793 904.551 14.337 0.989 o
4 1 3 64.248 64.955 2.389 49.989 o
4 1 4 21.401 23.135 1.403 164.518 o
4 1 5 47.213 51.430 2.107 68.478 o
4 1 6 47.006 46.306 2.998 52.009 o
4 1 7 64.882 68.255 2.995 41.589 o
4 1 8 32.397 34.189 2.351 81.400 o
4 1 9 1.501 1.530 1.202 540.339 o
4 1 10 9.945 7.470 1.661 217.967 o
4 2 0 46.172 41.846 1.242 95.585 o
4 2 1 820.271 879.871 13.783 1.082 o
4 2 2 119.997 132.658 3.069 23.328 o
4 2 3 253.288 267.300 5.250 7.922 o
4 2 4 380.086 393.081 8.117 3.912 o
4 2 5 125.875 128.979 3.823 20.146 o
4 2 6 94.503 85.955 3.145 30.809 o
4 2 7 22.719 21.555 1.872 127.277 o
4 2 8 9.175 12.051 1.946 169.204 o
4 2 9 7.404 6.170 1.455 285.050 o
4 2 10 15.174 14.272 1.877 154.660 o
4 3 0 460.768 463.983 11.368 2.550 o
4 3 1 9.327 6.764 0.869 445.342 o
4 3 2 287.070 296.482 7.265 5.750 o
4 3 3 257.506 293.838 9.103 5.137 o
4 3 4 519.949 557.893 15.519 1.708 o
4 3 5 252.678 262.369 9.283 5.255 o
4 3 6 96.733 91.850 5.869 16.429 o
4 3 7 134.784 123.599 7.949 9.502 o
4 3 8 22.634 14.562 4.272 41.995 o
4 3 9 11.778 13.832 2.639 101.421 o
4 3 10 131.345 146.375 8.006 9.237 o
4 4 0 43.377 37.842 2.747 60.928 o
4 4 1 145.805 156.705 11.648 5.179 o
4 4 2 70.830 75.751 4.141 28.646 o
4 4 3 59.642 51.276 3.059 45.262 o
4 4 4 194.256 197.205 7.119 8.425 o
4 4 5 293.050 306.592 10.034 4.311 o
4 4 6 245.937 248.890 13.694 3.356 o
4 4 7 32.157 37.195 5.056 28.757 o
4 4 8 23.441 26.891 3.239 62.190 o
4 4 9 35.340 30.719 4.976 29.523 o
4 5 0 48.843 44.883 5.112 25.980 o
4 5 1 0.870 1.604 1.386 431.938 o
4 5 2 100.668 107.214 5.087 18.583 o
4 5 3 2.659 0.943 1.800 253.664 o
4 5 4 79.085 83.019 4.223 26.373 o
4 5 5 29.174 27.491 2.750 73.350 o
4 5 6 43.089 46.564 3.614 43.156 o
4 5 7 2.392 2.038 1.909 226.201 o
4 5 8 54.817 53.568 4.095 33.632 o
4 5 9 97.823 92.732 7.682 11.295 o
4 6 0 4.025 4.047 1.528 307.349 o
4 6 1 118.258 117.258 5.570 15.462 o
4 6 2 69.305 59.215 3.830 32.930 o
4 6 7 8.574 8.591 2.674 106.560 o
4 6 8 15.355 17.375 3.910 50.575 o
4 7 0 164.201 150.722 6.350 10.969 o
5 -9 -4 9.112 9.020 2.058 160.627 o
5 -9 -3 16.136 24.726 2.606 91.987 o
5 -9 -2 46.260 46.631 9.747 8.705 o
5 -9 -1 21.622 17.030 2.938 76.176 o
5 -8 -7 17.877 17.829 2.357 107.758 o
5 -8 -6 7.309 7.747 1.975 179.452 o
5 -8 -5 14.963 17.538 2.351 112.708 o
5 -8 -4 29.087 28.070 2.702 74.793 o
5 -8 -3 24.361 22.933 3.272 61.796 o
5 -8 -2 15.089 18.828 2.999 77.970 o
5 -8 -1 6.619 9.795 4.097 50.106 o
5 -7 -9 1.913 1.941 1.781 260.441 o
5 -7 -8 10.238 14.443 2.769 95.261 o
5 -7 -7 9.822 12.381 3.832 55.150 o
5 -7 -6 16.198 13.594 2.089 133.610 o
5 -7 -5 16.096 16.621 2.180 123.585 o
5 -7 -4 37.965 39.260 2.800 62.376 o
5 -7 -3 111.044 105.487 4.548 19.941 o
5 -7 -2 16.727 17.894 2.598 95.486 o
5 -7 -1 14.838 10.479 2.342 119.363 o
5 -6 -10 0.150 0.041 2.031 216.883 o
5 -6 -9 18.501 25.654 3.315 62.861 o
5 -6 -8 38.059 35.521 4.405 34.907 o
5 -6 -7 22.070 22.902 6.019 22.578 o
5 -6 -6 189.793 195.927 8.034 7.546 o
5 -6 -5 115.972 116.455 5.205 16.761 o
5 -6 -4 154.513 143.116 5.275 13.598 o
5 -6 -3 42.273 41.332 2.775 59.951 o
5 -6 -2 46.237 37.389 2.634 61.969 o
5 -6 -1 202.684 199.615 13.156 3.875 o
5 -5 -11 21.677 20.445 3.070 70.211 o
5 -5 -10 5.985 5.902 1.986 186.399 o
5 -5 -9 15.415 12.055 2.580 101.543 o
5 -5 -8 13.939 10.743 2.384 117.512 o
5 -5 -7 7.274 9.177 2.091 161.986 o
5 -5 -6 39.644 40.594 3.501 46.948 o
5 -5 -5 23.781 25.450 2.748 78.382 o
5 -5 -4 867.313 845.506 18.538 0.888 o
5 -5 -3 94.053 95.106 3.909 25.437 o
5 -5 -2 134.816 127.879 4.519 17.190 o
5 -5 -1 37.462 30.484 1.987 90.993 o
5 -4 -11 52.153 54.962 2.992 48.289 o
5 -4 -10 19.952 17.490 3.897 49.406 o
5 -4 -9 43.802 44.367 3.021 53.375 o
5 -4 -8 28.761 29.584 2.463 82.959 o
5 -4 -7 221.323 230.612 6.934 7.665 o
5 -4 -6 189.872 189.194 7.429 8.261 o
5 -4 -5 54.250 49.095 4.780 27.749 o
5 -4 -4 190.782 209.821 8.477 6.985 o
5 -4 -3 394.617 404.276 13.017 2.620 o
5 -4 -2 23.170 19.495 1.760 136.444 o
5 -4 -1 375.451 389.507 8.210 3.938 o
5 -3 -12 59.862 71.839 4.067 31.349 o
5 -3 -11 35.681 33.659 2.396 77.201 o
5 -3 -10 93.112 86.736 3.582 28.150 o
5 -3 -9 159.616 152.907 4.754 14.190 o
5 -3 -8 117.277 121.020 3.974 20.866 o
5 -3 -7 338.539 336.325 13.514 2.853 o
5 -3 -6 148.867 161.245 5.261 13.456 o
5 -3 -5 96.499 94.454 3.706 26.292 o
5 -3 -4 6.872 6.992 1.241 350.707 o
5 -3 -3 85.843 84.900 4.077 26.253 o
5 -3 -2 5.632 7.666 1.253 359.535 o
5 -3 -1 38.376 43.736 1.794 88.625 o
5 -2 -12 61.362 73.071 4.040 31.225 o
5 -2 -11 22.168 22.497 2.074 114.514 o
5 -2 -10 10.355 5.493 1.344 288.886 o
5 -2 -9 129.033 110.454 3.877 20.570 o
5 -2 -8 21.902 22.542 1.776 134.694 o
5 -2 -7 99.459 98.111 3.356 27.544 o
5 -2 -6 438.356 415.248 8.774 3.266 o
5 -2 -5 779.981 787.864 16.966 1.056 o
5 -2 -4 209.558 209.880 4.400 11.000 o
5 -2 -3 79.562 72.749 2.616 40.336 o
5 -2 -2 232.133 230.509 3.829 10.299 o
5 -2 -1 368.350 383.365 6.973 4.390 o
5 -1 -12 21.408 24.878 2.061 114.535 o
5 -1 -11 32.873 31.578 1.914 99.079 o
5 -1 -10 95.106 106.164 3.932 24.445 o
5 -1 -9 183.484 179.426 4.188 13.216 o
5 -1 -8 447.472 461.027 7.938 3.231 o
5 -1 -7 44.221 46.463 1.845 79.431 o
5 -1 -6 83.887 78.154 2.510 39.151 o
5 -1 -5 13.127 12.458 1.153 272.861 o
5 -1 -4 126.289 132.246 2.639 24.027 o
5 -1 -3 411.786 412.669 8.036 3.615 o
5 -1 -2 16.305 17.458 0.976 253.812 o
5 -1 -1 71.761 69.308 3.264 36.694 o
5 0 0 3.256 0.794 0.604 1253.030 o
5 0 1 457.716 445.414 8.001 3.204 o
5 0 2 300.253 325.880 6.346 5.811 o
5 0 3 1.104 2.534 0.741 1157.850 o
5 0 4 458.962 467.105 7.893 3.149 o
5 0 5 37.232 33.597 1.903 92.442 o
5 0 6 2.989 6.466 1.316 384.343 o
5 0 7 57.542 52.532 2.531 53.866 o
5 0 8 10.477 10.384 1.541 227.648 o
5 0 9 2.009 1.337 1.393 408.915 o
5 1 0 45.436 48.893 1.753 79.363 o
5 1 1 142.844 140.959 3.367 19.305 o
5 1 2 5.077 4.842 0.881 595.641 o
5 1 3 267.116 274.957 5.941 7.052 o
5 1 4 491.673 499.691 9.135 2.689 o
5 1 5 193.994 204.401 4.856 11.161 o
5 1 6 38.374 35.118 2.039 85.545 o
5 1 7 57.013 54.503 2.584 52.786 o
5 1 8 8.673 9.414 1.641 223.178 o
5 1 9 23.952 26.378 2.018 111.530 o
5 2 0 688.034 678.793 9.475 1.685 o
5 2 1 170.277 175.417 3.920 14.560 o
5 2 2 124.037 117.417 3.035 23.935 o
5 2 3 1.270 1.076 0.843 1016.700 o
5 2 4 6.534 6.881 1.102 409.311 o
5 2 5 118.961 127.948 3.925 20.528 o
5 2 6 207.593 189.489 4.758 11.045 o
5 2 7 75.772 79.234 3.069 36.287 o
5 2 8 14.056 17.678 2.222 123.287 o
5 2 9 3.952 1.954 1.677 273.033 o
5 3 0 380.653 386.285 11.805 2.977 o
5 3 1 211.045 209.329 4.555 10.768 o
5 3 2 1.019 0.655 1.065 711.697 o
5 3 3 93.258 86.552 5.517 18.139 o
5 3 4 191.115 186.465 5.801 10.305 o
5 3 5 281.268 280.195 7.936 5.572 o
5 3 6 9.842 10.824 2.279 133.652 o
5 3 7 25.009 20.789 3.014 69.829 o
5 3 8 35.527 34.598 3.916 42.234 o
5 3 9 38.928 33.781 3.859 42.335 o
5 4 0 121.681 106.901 5.383 16.134 o
5 4 1 1.389 -0.471 1.412 422.707 o
5 4 2 35.727 36.839 3.805 43.632 o
5 4 3 11.256 10.405 2.284 130.747 o
5 4 4 28.524 30.297 4.812 32.157 o
5 4 5 97.306 92.620 6.928 13.132 o
5 4 6 1.711 3.965 1.682 282.179 o
5 4 7 11.420 9.579 2.438 118.613 o
5 4 8 39.447 38.125 3.939 40.465 o
5 5 0 37.037 39.847 3.320 51.320 o
5 5 1 256.345 256.881 9.165 5.313 o
5 5 2 94.987 87.513 4.818 21.030 o
5 5 3 5.138 4.025 1.855 217.059 o
5 5 4 156.079 141.478 6.609 10.941 o
5 5 6 14.531 15.692 4.000 49.102 o
5 5 7 6.860 7.354 3.746 59.593 o
5 5 8 43.867 56.737 4.427 31.879 o
5 6 0 124.732 119.820 10.523 6.442 o
5 6 1 41.438 30.233 3.149 54.968 o
5 6 2 24.714 18.512 3.140 66.714 o
5 6 3 6.392 6.914 1.824 209.142 o
5 7 0 16.870 15.255 2.524 100.974 o
5 7 1 1.741 1.707 1.650 302.295 o
6 -8 -5 72.271 82.895 4.508 25.397 o
6 -8 -4 18.791 21.699 2.467 97.710 o
6 -8 -3 6.816 8.446 2.324 138.445 o
6 -8 -2 17.888 17.361 2.774 85.933 o
6 -8 -1 24.238 28.093 8.269 12.392 o
6 -7 -7 23.856 26.738 2.749 77.782 o
6 -7 -6 0.446 1.310 1.804 267.464 o
6 -7 -5 37.311 42.150 3.098 55.217 o
6 -7 -4 15.332 12.492 2.351 116.166 o
6 -7 -3 28.472 24.131 2.919 69.559 o
6 -7 -2 59.635 50.198 4.091 33.096 o
6 -7 -1 138.089 130.106 6.434 12.101 o
6 -6 -9 52.600 55.656 6.238 18.454 o
6 -6 -8 20.028 19.964 3.057 71.901 o
6 -6 -7 26.281 23.909 6.720 18.233 o
6 -6 -6 55.845 59.646 3.574 38.511 o
6 -6 -5 0.485 1.748 1.409 424.799 o
6 -6 -4 10.818 14.340 2.023 151.985 o
6 -6 -3 41.746 42.663 2.894 57.289 o
6 -6 -2 195.339 191.205 7.802 7.727 o
6 -6 -1 2.907 3.265 1.815 240.632 o
6 -5 -10 15.477 15.370 2.755 90.112 o
6 -5 -9 25.564 25.442 3.505 54.758 o
6 -5 -8 50.010 60.793 4.596 29.085 o
6 -5 -7 0.611 -0.038 2.108 199.540 o
6 -5 -6 129.862 133.035 6.451 12.319 o
6 -5 -5 184.754 188.036 7.704 8.069 o
6 -5 -4 31.814 29.382 2.491 79.245 o
6 -5 -3 11.329 13.212 1.766 182.273 o
6 -5 -2 136.141 116.908 5.560 14.530 o
6 -5 -1 94.175 97.454 3.625 26.877 o
6 -4 -11 1.048 1.368 1.514 365.398 o
6 -4 -10 29.061 33.631 2.832 68.713 o
6 -4 -9 59.956 61.763 4.609 27.567 o
6 -4 -8 36.983 32.972 3.259 53.979 o
6 -4 -7 45.726 40.104 3.550 44.300 o
6 -4 -6 70.670 73.204 4.518 26.129 o
6 -4 -5 8.609 8.921 1.923 179.707 o
6 -4 -4 8.994 6.921 1.845 193.561 o
6 -4 -3 27.897 20.910 1.955 112.990 o
6 -4 -2 259.173 249.766 8.655 5.624 o
6 -4 -1 55.156 49.990 2.535 55.609 o
6 -3 -11 22.017 21.665 2.550 89.991 o
6 -3 -10 4.302 3.848 1.542 301.176 o
6 -3 -9 31.551 25.570 3.002 64.745 o
6 -3 -8 46.275 47.247 3.456 44.492 o
6 -3 -7 11.946 8.615 1.606 213.272 o
6 -3 -6 61.415 60.612 3.388 39.134 o
6 -3 -5 29.254 27.651 3.727 48.305 o
6 -3 -4 113.997 108.610 5.091 17.546 o
6 -3 -3 117.620 122.121 4.335 19.428 o
6 -3 -2 68.062 64.023 2.919 42.141 o
6 -3 -1 17.778 16.838 1.524 178.246 o
6 -2 -12 1.104 0.742 1.386 435.845 o
6 -2 -11 17.414 19.964 2.772 85.256 o
6 -2 -10 12.024 9.566 1.877 172.316 o
6 -2 -9 10.802 7.218 2.223 140.806 o
6 -2 -8 21.935 28.091 2.485 89.630 o
6 -2 -7 142.483 152.763 5.375 13.736 o
6 -2 -6 527.140 507.762 12.205 2.124 o
6 -2 -5 751.561 757.379 16.680 1.117 o
6 -2 -4 339.880 353.887 9.382 3.998 o
6 -2 -3 261.175 263.556 6.982 6.572 o
6 -2 -2 19.851 19.833 1.671 151.915 o
6 -2 -1 145.248 144.104 4.071 17.044 o
6 -1 -12 17.448 14.355 1.913 144.849 o
6 -1 -11 25.358 25.736 2.181 101.278 o
6 -1 -10 0.820 0.158 0.979 859.761 o
6 -1 -9 8.624 6.666 1.068 386.445 o
6 -1 -8 7.887 6.625 1.064 401.483 o
6 -1 -7 46.024 40.600 1.830 80.945 o
6 -1 -6 162.875 162.876 4.551 14.149 o
6 -1 -5 142.736 144.175 4.116 17.114 o
6 -1 -4 309.775 295.772 6.654 5.744 o
6 -1 -3 442.645 458.661 7.532 3.345 o
6 -1 -2 91.739 94.148 2.256 36.514 o
6 -1 -1 119.349 108.280 6.352 13.468 o
6 0 0 10.303 14.397 1.281 263.693 o
6 0 1 387.721 399.721 7.630 3.954 o
6 0 2 1.682 4.511 1.056 600.873 o
6 0 3 44.768 44.906 2.169 71.412 o
6 0 4 26.257 25.099 1.720 125.749 o
6 0 5 10.957 9.885 1.401 252.531 o
6 0 6 101.233 98.106 3.465 26.660 o
6 0 7 3.417 3.590 1.207 458.189 o
6 0 8 24.342 24.017 1.972 115.471 o
6 1 0 196.092 186.787 4.377 12.117 o
6 1 1 63.283 62.840 2.319 51.858 o
6 1 2 102.936 100.804 3.040 28.494 o
6 1 3 44.658 47.757 2.165 70.497 o
6 1 4 89.369 89.175 3.230 30.924 o
6 1 5 25.670 29.648 1.927 110.904 o
6 1 6 39.321 36.431 2.225 78.081 o
6 1 7 18.568 17.552 1.908 138.475 o
6 1 8 24.374 24.989 2.023 111.662 o
6 2 0 24.771 25.078 1.540 140.899 o
6 2 1 100.469 97.557 3.728 25.383 o
6 2 2 121.528 122.947 4.713 17.760 o
6 2 3 421.686 415.260 10.431 3.011 o
6 2 4 146.409 140.044 5.111 14.478 o
6 2 5 101.656 114.111 8.450 9.482 o
6 2 6 129.270 128.870 5.351 15.139 o
6 2 7 23.934 22.184 2.667 82.812 o
6 2 8 14.491 13.644 2.288 121.245 o
6 3 0 20.313 19.904 2.684 86.532 o
6 3 1 54.956 68.511 4.331 30.093 o
6 3 2 29.590 28.135 2.177 94.411 o
6 3 3 56.367 57.139 3.553 38.946 o
6 3 4 8.652 7.290 1.619 233.916 o
6 3 5 21.409 20.889 2.269 105.552 o
6 3 6 0.685 0.173 1.435 421.207 o
6 3 7 10.918 11.880 2.129 144.230 o
6 4 0 85.377 63.739 7.650 12.111 o
6 4 1 29.319 31.361 3.240 58.180 o
6 4 2 53.314 49.558 3.997 35.362 o
6 4 3 58.312 52.541 4.149 32.545 o
6 4 5 1.398 0.922 1.521 360.376 o
6 4 6 6.358 5.114 1.620 256.882 o
6 4 7 39.976 37.201 3.115 54.782 o
6 5 0 167.091 165.280 7.238 9.302 o
6 5 1 265.280 263.401 15.958 2.611 o
6 5 2 51.965 45.284 6.912 15.843 o
6 5 3 90.826 82.347 5.137 20.119 o
6 5 4 8.213 8.964 2.296 137.485 o
6 5 5 18.450 15.947 4.777 35.148 o
6 6 0 5.994 4.292 2.111 171.086 o
6 6 1 10.195 8.376 2.838 94.683 o
6 6 2 116.250 114.999 6.117 14.073 o
6 6 3 12.957 11.952 2.731 95.797 o
6 7 0 51.193 49.550 2.943 50.533 o
6 7 1 12.204 15.418 2.755 93.425 o
7 -7 -5 28.983 32.773 2.912 66.701 o
7 -7 -4 23.147 22.745 3.050 69.232 o
7 -7 -3 39.278 46.651 4.156 36.656 o
7 -7 -2 27.398 29.798 3.313 57.651 o
7 -7 -1 5.790 5.505 3.165 82.749 o
7 -6 -7 9.902 9.788 2.030 160.384 o
7 -6 -6 4.600 4.885 1.811 226.471 o
7 -6 -5 18.828 18.195 2.490 98.601 o
7 -6 -4 32.250 30.583 3.311 55.367 o
7 -6 -3 29.434 35.926 3.458 52.221 o
7 -6 -2 4.415 7.502 1.969 192.094 o
7 -6 -1 107.493 100.460 7.922 10.456 o
7 -5 -9 62.981 78.759 7.831 12.059 o
7 -5 -8 21.900 29.895 3.547 54.343 o
7 -5 -7 5.635 7.277 2.021 179.793 o
7 -5 -6 61.457 65.514 4.646 26.853 o
7 -5 -5 11.329 13.966 2.133 140.377 o
7 -5 -4 45.926 46.562 3.282 47.481 o
7 -5 -3 43.430 41.288 5.541 23.555 o
7 -5 -2 52.094 50.607 5.483 22.806 o
7 -5 -1 31.283 31.455 2.870 66.882 o
7 -4 -9 7.031 8.007 2.252 145.854 o
7 -4 -8 1.210 0.401 1.970 223.686 o
7 -4 -7 4.409 5.070 1.971 196.951 o
7 -4 -6 29.211 25.195 3.007 66.103 o
7 -4 -5 30.589 30.421 3.173 59.440 o
7 -4 -4 14.364 12.979 1.807 166.619 o
7 -4 -3 68.136 67.026 7.973 11.725 o
7 -4 -2 23.219 21.535 2.566 88.102 o
7 -4 -1 0.221 -1.149 1.402 452.014 o
7 -3 -10 31.035 33.532 2.917 65.072 o
7 -3 -9 23.119 29.224 2.726 78.201 o
7 -3 -8 10.898 12.625 2.444 116.540 o
7 -3 -7 34.428 30.370 7.708 13.833 o
7 -3 -6 52.457 42.377 3.632 40.891 o
7 -3 -5 52.000 42.829 3.464 43.306 o
7 -3 -4 251.751 234.516 11.209 4.375 o
7 -3 -3 42.210 38.325 3.525 46.069 o
7 -3 -2 228.349 247.394 12.255 4.006 o
7 -3 -1 68.696 66.883 5.573 20.330 o
7 -2 -11 6.399 8.186 2.477 125.291 o
7 -2 -10 46.851 45.226 4.278 33.917 o
7 -2 -9 30.864 36.429 2.993 62.310 o
7 -2 -8 11.915 13.558 2.551 106.955 o
7 -2 -7 37.475 30.090 3.020 59.811 o
7 -2 -6 47.123 47.047 3.469 44.063 o
7 -2 -5 75.214 64.919 4.217 28.232 o
7 -2 -4 278.367 288.363 10.213 4.426 o
7 -2 -3 65.859 63.173 5.462 21.282 o
7 -2 -1 122.948 117.523 5.721 14.770 o
7 -1 -11 3.376 2.081 1.586 305.415 o
7 -1 -10 8.238 6.333 1.690 225.445 o
7 -1 -9 16.410 17.355 2.380 108.781 o
7 -1 -8 25.052 28.495 2.542 83.902 o
7 -1 -7 2.918 2.876 1.359 396.204 o
7 -1 -6 17.236 19.326 2.085 125.736 o
7 -1 -5 41.493 48.208 2.841 57.143 o
7 -1 -4 400.823 395.087 9.944 3.290 o
7 -1 -3 131.747 122.605 5.471 14.848 o
7 -1 -1 93.698 98.976 3.496 27.592 o
7 0 0 146.311 157.935 4.706 14.923 o
7 0 1 280.763 295.353 6.344 6.366 o
7 0 2 0.537 1.353 1.055 731.225 o
7 0 3 5.805 4.666 1.256 378.642 o
7 0 4 37.824 41.532 2.263 76.025 o
7 0 5 8.706 8.139 1.530 248.879 o
7 0 6 23.219 23.794 2.053 112.864 o
7 1 0 49.564 48.218 2.241 65.068 o
7 1 1 34.888 29.168 2.321 82.448 o
7 1 2 12.184 12.429 2.145 138.977 o
7 1 3 101.793 105.361 4.570 20.702 o
7 1 4 15.677 15.496 2.087 132.823 o
7 1 5 13.422 15.381 2.253 124.244 o
7 1 6 3.019 3.557 1.744 256.199 o
7 2 0 119.278 117.453 7.740 10.300 o
7 2 1 179.654 180.144 4.617 12.688 o
7 2 2 37.252 41.181 3.797 42.746 o
7 2 3 5.349 3.495 1.593 278.320 o
7 2 4 12.650 14.728 2.005 148.330 o
7 2 5 6.019 4.538 1.585 270.294 o
7 2 6 30.460 28.604 2.862 68.558 o
7 3 0 28.260 27.868 3.267 58.840 o
7 3 1 30.201 26.454 3.279 57.953 o
7 3 2 9.982 6.579 2.301 135.855 o
7 3 4 10.177 10.180 1.921 172.192 o
7 3 5 44.276 46.917 3.322 47.331 o
7 3 6 11.686 9.519 2.144 143.707 o
7 4 0 21.811 19.081 2.874 77.694 o
7 4 1 20.781 21.721 4.054 45.438 o
7 4 2 32.569 28.893 3.388 53.865 o
7 4 3 6.903 3.862 3.802 58.636 o
7 4 4 14.103 15.534 2.949 82.162 o
7 5 0 57.132 55.258 4.395 30.216 o
7 5 1 52.607 43.268 4.000 36.120 o
7 5 2 6.413 3.368 2.208 158.511 o
7 5 3 77.417 85.637 5.674 18.572 o
7 5 4 23.085 20.220 3.785 50.349 o
7 6 0 22.486 18.394 3.133 68.287 o
7 6 1 11.513 13.027 2.999 83.049 o
7 6 2 19.606 18.145 3.221 67.189 o
7 6 3 14.931 15.927 3.184 71.924 o
7 7 0 28.150 32.055 3.642 49.614 o
7 7 1 3.199 3.335 2.519 131.769 o
8 -6 -4 12.501 13.800 2.634 100.875 o
8 -6 -3 15.562 19.858 4.305 42.433 o
8 -6 -2 2.744 1.352 2.471 139.568 o
8 -6 -1 24.219 26.998 4.944 31.525 o
8 -5 -6 59.585 64.787 6.523 16.615 o
8 -5 -5 79.322 84.795 9.490 8.436 o
8 -5 -4 9.897 8.859 2.410 124.114 o
8 -5 -3 21.090 18.928 4.005 46.670 o
8 -5 -2 26.729 32.926 4.776 32.631 o
8 -4 -8 7.815 5.669 2.290 142.757 o
8 -4 -7 4.546 4.951 4.069 52.099 o
8 -4 -6 20.660 27.451 3.182 65.178 o
8 -4 -5 3.454 3.574 3.092 89.244 o
8 -4 -4 71.616 71.946 4.793 24.284 o
8 -4 -1 42.834 43.852 5.343 24.896 o
8 -3 -9 39.153 48.131 5.551 23.554 o
8 -3 -8 47.416 55.605 4.428 31.397 o
8 -3 -7 11.338 12.648 2.541 109.065 o
8 -3 -6 11.581 17.975 2.850 87.915 o
8 -3 -5 30.982 32.123 5.328 26.749 o
8 -3 -4 81.247 93.854 7.368 12.501 o
8 -3 -1 30.892 31.501 3.415 53.435 o
8 -2 -9 1.769 1.687 2.462 142.284 o
8 -2 -8 31.328 33.929 3.126 59.377 o
8 -2 -7 6.456 8.583 2.038 172.261 o
8 -2 -6 11.263 8.990 2.212 138.748 o
8 -2 -5 43.595 38.285 3.438 47.090 o
8 -2 -4 7.125 8.990 3.085 84.203 o
8 -2 -1 30.544 29.237 3.380 54.807 o
8 -1 -9 69.825 84.165 4.812 23.700 o
8 -1 -8 98.209 116.583 5.103 18.353 o
8 -1 -7 19.350 20.319 2.240 110.751 o
8 -1 -6 23.196 23.065 2.275 101.219 o
8 -1 -5 7.374 8.274 1.636 235.415 o
8 -1 -4 48.868 48.099 5.127 25.694 o
8 -1 -1 187.826 177.020 7.525 8.324 o
8 0 0 0.325 0.638 0.944 942.267 o
8 0 1 0.606 0.555 1.221 570.176 o
8 0 2 55.987 56.198 2.876 48.345 o
8 0 3 16.915 18.691 1.760 154.325 o
8 0 4 14.950 14.551 1.645 180.380 o
8 1 0 14.948 9.882 1.438 219.724 o
8 1 1 31.164 29.323 2.842 68.440 o
8 1 2 14.393 14.573 3.086 76.511 o
8 1 3 34.388 29.399 2.804 67.431 o
8 1 4 2.738 0.915 1.531 338.850 o
8 2 0 258.310 266.745 10.159 4.711 o
8 2 1 5.185 7.754 2.317 143.583 o
8 2 2 76.289 79.168 12.576 5.176 o
8 2 3 23.545 20.609 2.338 99.166 o
8 2 4 19.017 19.897 2.477 98.029 o
8 3 0 12.331 11.651 2.630 102.676 o
8 3 1 136.292 130.434 7.795 9.636 o
8 3 2 17.594 13.734 2.952 79.956 o
8 3 3 1.332 2.395 3.375 77.235 o
8 4 0 45.093 50.573 4.304 33.474 o
8 4 1 16.772 17.251 3.099 73.462 o
8 4 2 36.210 44.435 4.250 36.308 o
8 4 3 6.094 7.684 4.282 46.505 o
8 5 0 32.203 38.316 5.417 25.600 o
8 5 1 1.507 4.539 2.447 141.382 o
9 -3 -6 2.067 1.984 2.829 108.292 o
9 -2 -7 5.623 7.504 4.453 43.288 o
9 -2 -6 32.968 43.034 5.426 25.238 o
9 -2 -1 5.434 5.815 2.358 140.921 o
9 -1 -7 43.721 56.119 4.473 31.492 o
9 -1 -6 20.159 20.407 2.975 74.603 o
9 -1 -1 16.488 14.902 2.765 88.871 o
9 0 0 20.351 16.898 2.860 80.270 o
9 0 1 2.827 2.405 1.433 367.707 o
9 0 2 9.486 4.272 1.884 191.177 o
9 1 0 41.724 39.093 3.980 39.235 o
9 1 1 79.634 83.060 5.843 17.797 o
9 1 2 5.503 7.568 1.524 277.824 o
9 2 0 26.145 26.820 3.546 53.314 o
9 2 1 100.283 97.112 7.360 11.886 o
9 3 0 21.776 20.671 3.301 62.876 o
;
_iucr_refine_instructions_details
;
TITL sucrose_20170113_a.res in P2(1)
REM Old TITL sucrose_20170113 in P2(1)
REM SHELXT solution in P2(1)
REM R1 0.086, Rweak 0.029, Alpha 0.001, Orientation as input
REM Flack x = -0.096 ( 0.479 ) from Parsons' quotients
REM Formula found by SHELXT: C12 N O14
CELL 0.71073 7.772741 8.721603 10.863736 90 102.9832 90
ZERR 2 0.000944 0.001056 0.001068 0 0.0107 0
LATT -1
SYMM -X,0.5+Y,-Z
SFAC C H O
UNIT 24 44 22

L.S. 20 0 0
PLAN  5
SIZE 0.15 0.15 0.1
TEMP -153(2)
CONF
BOND $H
list 4
fmap 2 53
acta
MORE -1
EXTI 0.021532
SHEL 15 0.8
WGHT 0.027146 0.142663
FVAR 3.635013
REM <olex2.extras>
REM <constraints
REM  <item "olex2.constraint.same_disp C11 C22 C23 C24 C12 C15 C25 C14 C21 C13
REM  C16 C26">
REM >
REM <dispersion
REM  <C11 "0.0187 0.0040">
REM  <C22 "0.0187 0.0040">
REM  <C23 "0.0187 0.0040">
REM  <C24 "0.0187 0.0040">
REM  <C12 "0.0187 0.0040">
REM  <C15 "0.0187 0.0040">
REM  <C25 "0.0187 0.0040">
REM  <C14 "0.0187 0.0040">
REM  <C21 "0.0187 0.0040">
REM  <C13 "0.0187 0.0040">
REM  <C16 "0.0187 0.0040">
REM  <C26 "0.0187 0.0040">
REM >
REM <HklSrc "%.\\sucrose.hkl">
REM </olex2.extras>

O10   3     0.368375  0.539274  0.377363  11.00000  0.02726  0.02121 =
 0.02334 -0.00068  0.01027 -0.00059
O1    3     0.391207  0.591030  0.171180  11.00000  0.02221  0.01668 =
 0.01828  0.00091  0.00309 -0.00141
O20   3     0.316260  0.843512  0.212249  11.00000  0.01790  0.02362 =
 0.02643 -0.00730  0.00319  0.00217
O23   3     0.204576  0.620368 -0.074199  11.00000  0.03068  0.02524 =
 0.02304 -0.00473  0.00550 -0.00326
AFIX 147
H23   2     0.181690  0.541093 -0.036969  11.00000 -1.50000
AFIX 0
O21   3     0.620736  0.702481  0.029788  11.00000  0.02534  0.03536 =
 0.03214  0.00417  0.01384  0.00250
AFIX 147
H21   2     0.653634  0.623141  0.072432  11.00000 -1.50000
AFIX 0
O12   3     0.747327  0.502073  0.228840  11.00000  0.02328  0.03281 =
 0.03204  0.00120  0.00968  0.00066
AFIX 147
H12   2     0.827920  0.561000  0.265950  11.00000 -1.50000
AFIX 0
O24   3    -0.088945  0.840449 -0.021849  11.00000  0.01722  0.03913 =
 0.03361  0.00788  0.00138  0.00269
AFIX 147
H24   2    -0.183719  0.798009 -0.015827  11.00000 -1.50000
AFIX 0
O26   3     0.039416  0.699820  0.326637  11.00000  0.02902  0.04307 =
 0.03787  0.00826  0.01308  0.00153
AFIX 147
H26   2     0.141997  0.663283  0.344972  11.00000 -1.50000
AFIX 0
O13   3     0.702851  0.190117  0.308905  11.00000  0.05431  0.03065 =
 0.03713  0.00976  0.02285  0.01935
AFIX 147
H13   2     0.734829  0.171592  0.241517  11.00000 -1.50000
AFIX 0
O16   3     0.286181  0.392272  0.581348  11.00000  0.04791  0.03762 =
 0.02734  0.00477  0.01540  0.00725
AFIX 147
H16   2     0.276825  0.484370  0.601505  11.00000 -1.50000
AFIX 0
O14   3     0.355646  0.124315  0.348455  11.00000  0.04971  0.02216 =
 0.06863 -0.00654  0.02571 -0.00852
AFIX 147
H14   2     0.430206  0.055763  0.344703  11.00000 -1.50000
AFIX 0
C11   1     0.485705  0.580526  0.300153  11.00000  0.02123  0.02161 =
 0.01813 -0.00005  0.00436 -0.00037
AFIX 13
H11   2     0.538014  0.683036  0.327805  11.00000 -1.20000
AFIX 0
C22   1     0.369614  0.745722  0.124226  11.00000  0.01945  0.01661 =
 0.02164  0.00007  0.00565  0.00083
C23   1     0.214291  0.747431  0.007042  11.00000  0.02190  0.01889 =
 0.02023  0.00036  0.00484 -0.00168
AFIX 13
H23a  2     0.226827  0.841373 -0.042990  11.00000 -1.20000
AFIX 0
C24   1     0.055404  0.771053  0.065304  11.00000  0.01841  0.02401 =
 0.02339  0.00465  0.00375  0.00171
AFIX 13
H24a  2     0.017907  0.671201  0.096205  11.00000 -1.20000
AFIX 0
C12   1     0.635480  0.462993  0.312756  11.00000  0.02236  0.02568 =
 0.02046  0.00138  0.00447  0.00084
AFIX 13
H12a  2     0.707580  0.466279  0.401413  11.00000 -1.20000
AFIX 0
C15   1     0.295532  0.385796  0.359129  11.00000  0.02726  0.02326 =
 0.02326  0.00076  0.00586 -0.00448
AFIX 13
H15   2     0.217851  0.377504  0.272510  11.00000 -1.20000
AFIX 0
C25   1     0.127941  0.876677  0.176053  11.00000  0.01894  0.01996 =
 0.02959 -0.00036  0.00626  0.00302
AFIX 13
H25   2     0.111395  0.985442  0.146644  11.00000 -1.20000
AFIX 0
C14   1     0.442330  0.267289  0.373891  11.00000  0.03303  0.01912 =
 0.02700 -0.00117  0.00811 -0.00160
AFIX 13
H14a  2     0.512432  0.268274  0.463158  11.00000 -1.20000
AFIX 0
C21   1     0.543545  0.807307  0.103101  11.00000  0.01808  0.02687 =
 0.03146  0.00169  0.00622 -0.00413
AFIX 23
H21a  2     0.626055  0.824273  0.185717  11.00000 -1.20000
H21b  2     0.523093  0.907111  0.058810  11.00000 -1.20000
AFIX 0
C13   1     0.564405  0.302179  0.285423  11.00000  0.03314  0.02032 =
 0.02263  0.00141  0.00736  0.00593
AFIX 13
H13a  2     0.497018  0.294939  0.195647  11.00000 -1.20000
AFIX 0
C16   1     0.183884  0.366960  0.456908  11.00000  0.02873  0.03503 =
 0.03242  0.00739  0.01089 -0.00028
AFIX 23
H16a  2     0.133763  0.262162  0.451044  11.00000 -1.20000
H16b  2     0.084584  0.440725  0.438808  11.00000 -1.20000
AFIX 0
C26   1     0.046751  0.856286  0.289106  11.00000  0.02911  0.03455 =
 0.03246 -0.00402  0.01282  0.00206
AFIX 23
H26a  2    -0.074442  0.898790  0.268753  11.00000 -1.20000
H26b  2     0.116423  0.915644  0.360920  11.00000 -1.20000
AFIX 0
HKLF 4

END
Q1 1 0.44 0.766667 0.1 11 0.05 0.18
Q2 1 0.08 0.866667 0.225 11 0.05 0.17
Q3 1 0.48 0.3 0.325 11 0.05 0.17
Q4 1 0.24 0.366667 0.4 11 0.05 0.15
Q5 1 0.36 0.833333 0.175 11 0.05 0.13

  REM The information below was added by Olex2.
  REM
  REM R1 = 0.0280 for 2510 Fo > 4sig(Fo) and 0.0308 for all 2691 data
  REM 219 parameters refined using 1 restraints
  REM Highest difference peak 0.1785, deepest hole -0.1541
  REM Mean Shift 0.0001, Max Shift 0.0004.

  REM +++ Tabular Listing of Refinement Information +++
  REM R1_all = 0.0308
  REM R1_gt = 0.0280
  REM wR_ref = 0.0648
  REM GOOF = 1.0570
  REM Shift_max = 0.0004
  REM Shift_mean = 0.0001
  REM Reflections_all = 2691
  REM Reflections_gt = 2510
  REM Parameters = 219
  REM Hole = -0.1541
  REM Peak = 0.1785
  REM Flack = 1.2(12)

  
;
_olex2_submission_special_instructions  'No special instructions were received'
